
---------- Begin Simulation Statistics ----------
final_tick                               143356944375                       # Number of ticks from beginning of simulation (restored from checkpoints and never reset)
host_inst_rate                                 385090                       # Simulator instruction rate (inst/s)
host_mem_usage                                 678372                       # Number of bytes of host memory used
host_op_rate                                   449272                       # Simulator op (including micro ops) rate (op/s)
host_seconds                                   259.68                       # Real time elapsed on the host
host_tick_rate                              552053457                       # Simulator tick rate (ticks/s)
sim_freq                                 1000000000000                       # Frequency of simulated ticks
sim_insts                                   100000000                       # Number of instructions simulated
sim_ops                                     116666625                       # Number of ops (including micro ops) simulated
sim_seconds                                  0.143357                       # Number of seconds simulated
sim_ticks                                143356944375                       # Number of ticks simulated
system.cpu.branchPred.BTBCorrect                    0                       # Number of correct BTB predictions (this stat may not work properly.
system.cpu.branchPred.BTBHitPct             99.988559                       # BTB Hit Percentage
system.cpu.branchPred.BTBHits                16665616                       # Number of BTB hits
system.cpu.branchPred.BTBLookups             16667523                       # Number of BTB lookups
system.cpu.branchPred.RASInCorrect                  9                       # Number of incorrect RAS predictions.
system.cpu.branchPred.condIncorrect               553                       # Number of conditional branches incorrect
system.cpu.branchPred.condPredicted          16667118                       # Number of conditional branches predicted
system.cpu.branchPred.indirectHits                  6                       # Number of indirect target hits.
system.cpu.branchPred.indirectLookups             101                       # Number of indirect predictor lookups.
system.cpu.branchPred.indirectMisses               95                       # Number of indirect misses.
system.cpu.branchPred.lookups                16668127                       # Number of BP lookups
system.cpu.branchPred.usedRAS                     301                       # Number of times the RAS was used to get a target.
system.cpu.branchPredindirectMispredicted           57                       # Number of mispredicted indirect branches.
system.cpu.committedInsts                   100000000                       # Number of instructions committed
system.cpu.committedOps                     116666625                       # Number of ops (including micro ops) committed
system.cpu.cpi                               2.293711                       # CPI: cycles per instruction
system.cpu.discardedOps                          1726                       # Number of ops (including micro ops) which were discarded before commit
system.cpu.dtb.accesses                             0                       # DTB accesses
system.cpu.dtb.align_faults                         0                       # Number of TLB faults due to alignment restrictions
system.cpu.dtb.domain_faults                        0                       # Number of TLB faults due to domain restrictions
system.cpu.dtb.flush_entries                        0                       # Number of entries that have been flushed from TLB
system.cpu.dtb.flush_tlb                            0                       # Number of times complete TLB was flushed
system.cpu.dtb.flush_tlb_asid                       0                       # Number of times TLB was flushed by ASID
system.cpu.dtb.flush_tlb_mva                        0                       # Number of times TLB was flushed by MVA
system.cpu.dtb.flush_tlb_mva_asid                   0                       # Number of times TLB was flushed by MVA & ASID
system.cpu.dtb.hits                                 0                       # DTB hits
system.cpu.dtb.inst_accesses                        0                       # ITB inst accesses
system.cpu.dtb.inst_hits                            0                       # ITB inst hits
system.cpu.dtb.inst_misses                          0                       # ITB inst misses
system.cpu.dtb.misses                               0                       # DTB misses
system.cpu.dtb.perms_faults                         0                       # Number of TLB faults due to permissions restrictions
system.cpu.dtb.prefetch_faults                      0                       # Number of TLB faults due to prefetch
system.cpu.dtb.read_accesses                        0                       # DTB read accesses
system.cpu.dtb.read_hits                            0                       # DTB read hits
system.cpu.dtb.read_misses                          0                       # DTB read misses
system.cpu.dtb.stage2_mmu.stage2_tlb.accesses            0                       # DTB accesses
system.cpu.dtb.stage2_mmu.stage2_tlb.align_faults            0                       # Number of TLB faults due to alignment restrictions
system.cpu.dtb.stage2_mmu.stage2_tlb.domain_faults            0                       # Number of TLB faults due to domain restrictions
system.cpu.dtb.stage2_mmu.stage2_tlb.flush_entries            0                       # Number of entries that have been flushed from TLB
system.cpu.dtb.stage2_mmu.stage2_tlb.flush_tlb            0                       # Number of times complete TLB was flushed
system.cpu.dtb.stage2_mmu.stage2_tlb.flush_tlb_asid            0                       # Number of times TLB was flushed by ASID
system.cpu.dtb.stage2_mmu.stage2_tlb.flush_tlb_mva            0                       # Number of times TLB was flushed by MVA
system.cpu.dtb.stage2_mmu.stage2_tlb.flush_tlb_mva_asid            0                       # Number of times TLB was flushed by MVA & ASID
system.cpu.dtb.stage2_mmu.stage2_tlb.hits            0                       # DTB hits
system.cpu.dtb.stage2_mmu.stage2_tlb.inst_accesses            0                       # ITB inst accesses
system.cpu.dtb.stage2_mmu.stage2_tlb.inst_hits            0                       # ITB inst hits
system.cpu.dtb.stage2_mmu.stage2_tlb.inst_misses            0                       # ITB inst misses
system.cpu.dtb.stage2_mmu.stage2_tlb.misses            0                       # DTB misses
system.cpu.dtb.stage2_mmu.stage2_tlb.perms_faults            0                       # Number of TLB faults due to permissions restrictions
system.cpu.dtb.stage2_mmu.stage2_tlb.prefetch_faults            0                       # Number of TLB faults due to prefetch
system.cpu.dtb.stage2_mmu.stage2_tlb.read_accesses            0                       # DTB read accesses
system.cpu.dtb.stage2_mmu.stage2_tlb.read_hits            0                       # DTB read hits
system.cpu.dtb.stage2_mmu.stage2_tlb.read_misses            0                       # DTB read misses
system.cpu.dtb.stage2_mmu.stage2_tlb.walker.walkRequestOrigin_Requested::Data            0                       # Table walker requests started/completed, data/inst
system.cpu.dtb.stage2_mmu.stage2_tlb.walker.walkRequestOrigin_Requested::Inst            0                       # Table walker requests started/completed, data/inst
system.cpu.dtb.stage2_mmu.stage2_tlb.walker.walkRequestOrigin_Requested::total            0                       # Table walker requests started/completed, data/inst
system.cpu.dtb.stage2_mmu.stage2_tlb.walker.walkRequestOrigin_Completed::Data            0                       # Table walker requests started/completed, data/inst
system.cpu.dtb.stage2_mmu.stage2_tlb.walker.walkRequestOrigin_Completed::Inst            0                       # Table walker requests started/completed, data/inst
system.cpu.dtb.stage2_mmu.stage2_tlb.walker.walkRequestOrigin_Completed::total            0                       # Table walker requests started/completed, data/inst
system.cpu.dtb.stage2_mmu.stage2_tlb.walker.walkRequestOrigin::total            0                       # Table walker requests started/completed, data/inst
system.cpu.dtb.stage2_mmu.stage2_tlb.walker.walks            0                       # Table walker walks requested
system.cpu.dtb.stage2_mmu.stage2_tlb.write_accesses            0                       # DTB write accesses
system.cpu.dtb.stage2_mmu.stage2_tlb.write_hits            0                       # DTB write hits
system.cpu.dtb.stage2_mmu.stage2_tlb.write_misses            0                       # DTB write misses
system.cpu.dtb.walker.walkRequestOrigin_Requested::Data            0                       # Table walker requests started/completed, data/inst
system.cpu.dtb.walker.walkRequestOrigin_Requested::Inst            0                       # Table walker requests started/completed, data/inst
system.cpu.dtb.walker.walkRequestOrigin_Requested::total            0                       # Table walker requests started/completed, data/inst
system.cpu.dtb.walker.walkRequestOrigin_Completed::Data            0                       # Table walker requests started/completed, data/inst
system.cpu.dtb.walker.walkRequestOrigin_Completed::Inst            0                       # Table walker requests started/completed, data/inst
system.cpu.dtb.walker.walkRequestOrigin_Completed::total            0                       # Table walker requests started/completed, data/inst
system.cpu.dtb.walker.walkRequestOrigin::total            0                       # Table walker requests started/completed, data/inst
system.cpu.dtb.walker.walks                         0                       # Table walker walks requested
system.cpu.dtb.write_accesses                       0                       # DTB write accesses
system.cpu.dtb.write_hits                           0                       # DTB write hits
system.cpu.dtb.write_misses                         0                       # DTB write misses
system.cpu.fetch2.amo_instructions                  0                       # Number of memory atomic instructions successfully decoded
system.cpu.fetch2.fp_instructions                   0                       # Number of floating point instructions successfully decoded
system.cpu.fetch2.int_instructions           50004271                       # Number of integer instructions successfully decoded
system.cpu.fetch2.load_instructions          16667345                       # Number of memory load instructions successfully decoded
system.cpu.fetch2.store_instructions             1586                       # Number of memory store instructions successfully decoded
system.cpu.fetch2.vec_instructions                  0                       # Number of SIMD instructions successfully decoded
system.cpu.idleCycles                       118946925                       # Total number of cycles that the object has spent stopped
system.cpu.ipc                               0.435975                       # IPC: instructions per cycle
system.cpu.itb.accesses                             0                       # DTB accesses
system.cpu.itb.align_faults                         0                       # Number of TLB faults due to alignment restrictions
system.cpu.itb.domain_faults                        0                       # Number of TLB faults due to domain restrictions
system.cpu.itb.flush_entries                        0                       # Number of entries that have been flushed from TLB
system.cpu.itb.flush_tlb                            0                       # Number of times complete TLB was flushed
system.cpu.itb.flush_tlb_asid                       0                       # Number of times TLB was flushed by ASID
system.cpu.itb.flush_tlb_mva                        0                       # Number of times TLB was flushed by MVA
system.cpu.itb.flush_tlb_mva_asid                   0                       # Number of times TLB was flushed by MVA & ASID
system.cpu.itb.hits                                 0                       # DTB hits
system.cpu.itb.inst_accesses                        0                       # ITB inst accesses
system.cpu.itb.inst_hits                            0                       # ITB inst hits
system.cpu.itb.inst_misses                          0                       # ITB inst misses
system.cpu.itb.misses                               0                       # DTB misses
system.cpu.itb.perms_faults                         0                       # Number of TLB faults due to permissions restrictions
system.cpu.itb.prefetch_faults                      0                       # Number of TLB faults due to prefetch
system.cpu.itb.read_accesses                        0                       # DTB read accesses
system.cpu.itb.read_hits                            0                       # DTB read hits
system.cpu.itb.read_misses                          0                       # DTB read misses
system.cpu.itb.stage2_mmu.stage2_tlb.accesses            0                       # DTB accesses
system.cpu.itb.stage2_mmu.stage2_tlb.align_faults            0                       # Number of TLB faults due to alignment restrictions
system.cpu.itb.stage2_mmu.stage2_tlb.domain_faults            0                       # Number of TLB faults due to domain restrictions
system.cpu.itb.stage2_mmu.stage2_tlb.flush_entries            0                       # Number of entries that have been flushed from TLB
system.cpu.itb.stage2_mmu.stage2_tlb.flush_tlb            0                       # Number of times complete TLB was flushed
system.cpu.itb.stage2_mmu.stage2_tlb.flush_tlb_asid            0                       # Number of times TLB was flushed by ASID
system.cpu.itb.stage2_mmu.stage2_tlb.flush_tlb_mva            0                       # Number of times TLB was flushed by MVA
system.cpu.itb.stage2_mmu.stage2_tlb.flush_tlb_mva_asid            0                       # Number of times TLB was flushed by MVA & ASID
system.cpu.itb.stage2_mmu.stage2_tlb.hits            0                       # DTB hits
system.cpu.itb.stage2_mmu.stage2_tlb.inst_accesses            0                       # ITB inst accesses
system.cpu.itb.stage2_mmu.stage2_tlb.inst_hits            0                       # ITB inst hits
system.cpu.itb.stage2_mmu.stage2_tlb.inst_misses            0                       # ITB inst misses
system.cpu.itb.stage2_mmu.stage2_tlb.misses            0                       # DTB misses
system.cpu.itb.stage2_mmu.stage2_tlb.perms_faults            0                       # Number of TLB faults due to permissions restrictions
system.cpu.itb.stage2_mmu.stage2_tlb.prefetch_faults            0                       # Number of TLB faults due to prefetch
system.cpu.itb.stage2_mmu.stage2_tlb.read_accesses            0                       # DTB read accesses
system.cpu.itb.stage2_mmu.stage2_tlb.read_hits            0                       # DTB read hits
system.cpu.itb.stage2_mmu.stage2_tlb.read_misses            0                       # DTB read misses
system.cpu.itb.stage2_mmu.stage2_tlb.walker.walkRequestOrigin_Requested::Data            0                       # Table walker requests started/completed, data/inst
system.cpu.itb.stage2_mmu.stage2_tlb.walker.walkRequestOrigin_Requested::Inst            0                       # Table walker requests started/completed, data/inst
system.cpu.itb.stage2_mmu.stage2_tlb.walker.walkRequestOrigin_Requested::total            0                       # Table walker requests started/completed, data/inst
system.cpu.itb.stage2_mmu.stage2_tlb.walker.walkRequestOrigin_Completed::Data            0                       # Table walker requests started/completed, data/inst
system.cpu.itb.stage2_mmu.stage2_tlb.walker.walkRequestOrigin_Completed::Inst            0                       # Table walker requests started/completed, data/inst
system.cpu.itb.stage2_mmu.stage2_tlb.walker.walkRequestOrigin_Completed::total            0                       # Table walker requests started/completed, data/inst
system.cpu.itb.stage2_mmu.stage2_tlb.walker.walkRequestOrigin::total            0                       # Table walker requests started/completed, data/inst
system.cpu.itb.stage2_mmu.stage2_tlb.walker.walks            0                       # Table walker walks requested
system.cpu.itb.stage2_mmu.stage2_tlb.write_accesses            0                       # DTB write accesses
system.cpu.itb.stage2_mmu.stage2_tlb.write_hits            0                       # DTB write hits
system.cpu.itb.stage2_mmu.stage2_tlb.write_misses            0                       # DTB write misses
system.cpu.itb.walker.walkRequestOrigin_Requested::Data            0                       # Table walker requests started/completed, data/inst
system.cpu.itb.walker.walkRequestOrigin_Requested::Inst            0                       # Table walker requests started/completed, data/inst
system.cpu.itb.walker.walkRequestOrigin_Requested::total            0                       # Table walker requests started/completed, data/inst
system.cpu.itb.walker.walkRequestOrigin_Completed::Data            0                       # Table walker requests started/completed, data/inst
system.cpu.itb.walker.walkRequestOrigin_Completed::Inst            0                       # Table walker requests started/completed, data/inst
system.cpu.itb.walker.walkRequestOrigin_Completed::total            0                       # Table walker requests started/completed, data/inst
system.cpu.itb.walker.walkRequestOrigin::total            0                       # Table walker requests started/completed, data/inst
system.cpu.itb.walker.walks                         0                       # Table walker walks requested
system.cpu.itb.write_accesses                       0                       # DTB write accesses
system.cpu.itb.write_hits                           0                       # DTB write hits
system.cpu.itb.write_misses                         0                       # DTB write misses
system.cpu.numCycles                        229371111                       # number of cpu cycles simulated
system.cpu.numFetchSuspends                         0                       # Number of times Execute suspended instruction fetching
system.cpu.numWorkItemsCompleted                    0                       # number of work items this cpu completed
system.cpu.numWorkItemsStarted                      0                       # number of work items this cpu started
system.cpu.op_class_0::No_OpClass                   0      0.00%      0.00% # Class of committed instruction
system.cpu.op_class_0::IntAlu                83332767     71.43%     71.43% # Class of committed instruction
system.cpu.op_class_0::IntMult                     43      0.00%     71.43% # Class of committed instruction
system.cpu.op_class_0::IntDiv                       0      0.00%     71.43% # Class of committed instruction
system.cpu.op_class_0::FloatAdd                     0      0.00%     71.43% # Class of committed instruction
system.cpu.op_class_0::FloatCmp                     0      0.00%     71.43% # Class of committed instruction
system.cpu.op_class_0::FloatCvt                     0      0.00%     71.43% # Class of committed instruction
system.cpu.op_class_0::FloatMult                    0      0.00%     71.43% # Class of committed instruction
system.cpu.op_class_0::FloatMultAcc                 0      0.00%     71.43% # Class of committed instruction
system.cpu.op_class_0::FloatDiv                     0      0.00%     71.43% # Class of committed instruction
system.cpu.op_class_0::FloatMisc                    0      0.00%     71.43% # Class of committed instruction
system.cpu.op_class_0::FloatSqrt                    0      0.00%     71.43% # Class of committed instruction
system.cpu.op_class_0::SimdAdd                      0      0.00%     71.43% # Class of committed instruction
system.cpu.op_class_0::SimdAddAcc                   0      0.00%     71.43% # Class of committed instruction
system.cpu.op_class_0::SimdAlu                      0      0.00%     71.43% # Class of committed instruction
system.cpu.op_class_0::SimdCmp                      0      0.00%     71.43% # Class of committed instruction
system.cpu.op_class_0::SimdCvt                      0      0.00%     71.43% # Class of committed instruction
system.cpu.op_class_0::SimdMisc                     0      0.00%     71.43% # Class of committed instruction
system.cpu.op_class_0::SimdMult                     0      0.00%     71.43% # Class of committed instruction
system.cpu.op_class_0::SimdMultAcc                  0      0.00%     71.43% # Class of committed instruction
system.cpu.op_class_0::SimdShift                    0      0.00%     71.43% # Class of committed instruction
system.cpu.op_class_0::SimdShiftAcc                 0      0.00%     71.43% # Class of committed instruction
system.cpu.op_class_0::SimdDiv                      0      0.00%     71.43% # Class of committed instruction
system.cpu.op_class_0::SimdSqrt                     0      0.00%     71.43% # Class of committed instruction
system.cpu.op_class_0::SimdFloatAdd                 8      0.00%     71.43% # Class of committed instruction
system.cpu.op_class_0::SimdFloatAlu                 0      0.00%     71.43% # Class of committed instruction
system.cpu.op_class_0::SimdFloatCmp                 9      0.00%     71.43% # Class of committed instruction
system.cpu.op_class_0::SimdFloatCvt                 7      0.00%     71.43% # Class of committed instruction
system.cpu.op_class_0::SimdFloatDiv                 3      0.00%     71.43% # Class of committed instruction
system.cpu.op_class_0::SimdFloatMisc               30      0.00%     71.43% # Class of committed instruction
system.cpu.op_class_0::SimdFloatMult               19      0.00%     71.43% # Class of committed instruction
system.cpu.op_class_0::SimdFloatMultAcc             6      0.00%     71.43% # Class of committed instruction
system.cpu.op_class_0::SimdFloatSqrt                0      0.00%     71.43% # Class of committed instruction
system.cpu.op_class_0::SimdReduceAdd                0      0.00%     71.43% # Class of committed instruction
system.cpu.op_class_0::SimdReduceAlu                0      0.00%     71.43% # Class of committed instruction
system.cpu.op_class_0::SimdReduceCmp                0      0.00%     71.43% # Class of committed instruction
system.cpu.op_class_0::SimdFloatReduceAdd            0      0.00%     71.43% # Class of committed instruction
system.cpu.op_class_0::SimdFloatReduceCmp            0      0.00%     71.43% # Class of committed instruction
system.cpu.op_class_0::SimdAes                      0      0.00%     71.43% # Class of committed instruction
system.cpu.op_class_0::SimdAesMix                   0      0.00%     71.43% # Class of committed instruction
system.cpu.op_class_0::SimdSha1Hash                 0      0.00%     71.43% # Class of committed instruction
system.cpu.op_class_0::SimdSha1Hash2                0      0.00%     71.43% # Class of committed instruction
system.cpu.op_class_0::SimdSha256Hash               0      0.00%     71.43% # Class of committed instruction
system.cpu.op_class_0::SimdSha256Hash2              0      0.00%     71.43% # Class of committed instruction
system.cpu.op_class_0::SimdShaSigma2                0      0.00%     71.43% # Class of committed instruction
system.cpu.op_class_0::SimdShaSigma3                0      0.00%     71.43% # Class of committed instruction
system.cpu.op_class_0::SimdPredAlu                  0      0.00%     71.43% # Class of committed instruction
system.cpu.op_class_0::MemRead               16666763     14.29%     85.71% # Class of committed instruction
system.cpu.op_class_0::MemWrite              16666970     14.29%    100.00% # Class of committed instruction
system.cpu.op_class_0::FloatMemRead                 0      0.00%    100.00% # Class of committed instruction
system.cpu.op_class_0::FloatMemWrite                0      0.00%    100.00% # Class of committed instruction
system.cpu.op_class_0::IprAccess                    0      0.00%    100.00% # Class of committed instruction
system.cpu.op_class_0::InstPrefetch                 0      0.00%    100.00% # Class of committed instruction
system.cpu.op_class_0::total                116666625                       # Class of committed instruction
system.cpu.tickCycles                       110424186                       # Number of cycles that the object actually ticked
system.cpu.workload.numSyscalls                    11                       # Number of system calls
system.membus.snoop_filter.hit_multi_requests            0                       # Number of requests hitting in the snoop filter with multiple (>1) holders of the requested data.
system.membus.snoop_filter.hit_multi_snoops            0                       # Number of snoops hitting in the snoop filter with multiple (>1) holders of the requested data.
system.membus.snoop_filter.hit_single_requests      1025387                       # Number of requests hitting in the snoop filter with a single holder of the requested data.
system.membus.snoop_filter.hit_single_snoops            0                       # Number of snoops hitting in the snoop filter with a single holder of the requested data.
system.membus.snoop_filter.tot_requests       2067558                       # Total number of requests made to the snoop filter.
system.membus.snoop_filter.tot_snoops               0                       # Total number of snoops made to the snoop filter.
system.tol2bus.snoop_filter.hit_multi_requests           23                       # Number of requests hitting in the snoop filter with multiple (>1) holders of the requested data.
system.tol2bus.snoop_filter.hit_multi_snoops            0                       # Number of snoops hitting in the snoop filter with multiple (>1) holders of the requested data.
system.tol2bus.snoop_filter.hit_single_requests      1041290                       # Number of requests hitting in the snoop filter with a single holder of the requested data.
system.tol2bus.snoop_filter.hit_single_snoops          424                       # Number of snoops hitting in the snoop filter with a single holder of the requested data.
system.tol2bus.snoop_filter.tot_requests      2083492                       # Total number of requests made to the snoop filter.
system.tol2bus.snoop_filter.tot_snoops            424                       # Total number of snoops made to the snoop filter.
system.membus.pwrStateResidencyTicks::UNDEFINED 143356944375                       # Cumulative time (in ticks) in various power states
system.membus.trans_dist::ReadResp                542                       # Transaction distribution
system.membus.trans_dist::WritebackDirty      1025272                       # Transaction distribution
system.membus.trans_dist::CleanEvict              114                       # Transaction distribution
system.membus.trans_dist::ReadExReq           1041630                       # Transaction distribution
system.membus.trans_dist::ReadExResp          1041630                       # Transaction distribution
system.membus.trans_dist::ReadSharedReq           542                       # Transaction distribution
system.membus.pkt_count_system.l2.mem_side::system.mem_ctrls.port      3109730                       # Packet count per connected master and slave (bytes)
system.membus.pkt_count::total                3109730                       # Packet count per connected master and slave (bytes)
system.membus.pkt_size_system.l2.mem_side::system.mem_ctrls.port    132316416                       # Cumulative packet size per connected master and slave (bytes)
system.membus.pkt_size::total               132316416                       # Cumulative packet size per connected master and slave (bytes)
system.membus.snoops                                0                       # Total snoops (count)
system.membus.snoopTraffic                          0                       # Total snoop traffic (bytes)
system.membus.snoop_fanout::samples           1042172                       # Request fanout histogram
system.membus.snoop_fanout::mean                    0                       # Request fanout histogram
system.membus.snoop_fanout::stdev                   0                       # Request fanout histogram
system.membus.snoop_fanout::underflows              0      0.00%      0.00% # Request fanout histogram
system.membus.snoop_fanout::0                 1042172    100.00%    100.00% # Request fanout histogram
system.membus.snoop_fanout::1                       0      0.00%    100.00% # Request fanout histogram
system.membus.snoop_fanout::overflows               0      0.00%    100.00% # Request fanout histogram
system.membus.snoop_fanout::min_value               0                       # Request fanout histogram
system.membus.snoop_fanout::max_value               0                       # Request fanout histogram
system.membus.snoop_fanout::total             1042172                       # Request fanout histogram
system.membus.respLayer1.occupancy         5487427500                       # Layer occupancy (ticks)
system.membus.respLayer1.utilization              3.8                       # Layer utilization (%)
system.membus.reqLayer0.occupancy          6685682000                       # Layer occupancy (ticks)
system.membus.reqLayer0.utilization               4.7                       # Layer utilization (%)
system.tol2bus.pwrStateResidencyTicks::UNDEFINED 143356944375                       # Cumulative time (in ticks) in various power states
system.tol2bus.trans_dist::ReadResp               572                       # Transaction distribution
system.tol2bus.trans_dist::WritebackDirty      2066417                       # Transaction distribution
system.tol2bus.trans_dist::WritebackClean           62                       # Transaction distribution
system.tol2bus.trans_dist::CleanEvict             621                       # Transaction distribution
system.tol2bus.trans_dist::ReadExReq          1041630                       # Transaction distribution
system.tol2bus.trans_dist::ReadExResp         1041630                       # Transaction distribution
system.tol2bus.trans_dist::ReadCleanReq           462                       # Transaction distribution
system.tol2bus.trans_dist::ReadSharedReq          110                       # Transaction distribution
system.tol2bus.pkt_count_system.cpu.icache.mem_side::system.l2.cpu_side          986                       # Packet count per connected master and slave (bytes)
system.tol2bus.pkt_count_system.cpu.dcache.mem_side::system.l2.cpu_side      3124708                       # Packet count per connected master and slave (bytes)
system.tol2bus.pkt_count::total               3125694                       # Packet count per connected master and slave (bytes)
system.tol2bus.pkt_size_system.cpu.icache.mem_side::system.l2.cpu_side        33536                       # Cumulative packet size per connected master and slave (bytes)
system.tol2bus.pkt_size_system.cpu.dcache.mem_side::system.l2.cpu_side    133304640                       # Cumulative packet size per connected master and slave (bytes)
system.tol2bus.pkt_size::total              133338176                       # Cumulative packet size per connected master and slave (bytes)
system.tol2bus.snoops                         1025810                       # Total snoops (count)
system.tol2bus.snoopTraffic                  65617408                       # Total snoop traffic (bytes)
system.tol2bus.snoop_fanout::samples          2068012                       # Request fanout histogram
system.tol2bus.snoop_fanout::mean            0.000216                       # Request fanout histogram
system.tol2bus.snoop_fanout::stdev           0.014700                       # Request fanout histogram
system.tol2bus.snoop_fanout::underflows             0      0.00%      0.00% # Request fanout histogram
system.tol2bus.snoop_fanout::0                2067565     99.98%     99.98% # Request fanout histogram
system.tol2bus.snoop_fanout::1                    447      0.02%    100.00% # Request fanout histogram
system.tol2bus.snoop_fanout::2                      0      0.00%    100.00% # Request fanout histogram
system.tol2bus.snoop_fanout::overflows              0      0.00%    100.00% # Request fanout histogram
system.tol2bus.snoop_fanout::min_value              0                       # Request fanout histogram
system.tol2bus.snoop_fanout::max_value              1                       # Request fanout histogram
system.tol2bus.snoop_fanout::total            2068012                       # Request fanout histogram
system.tol2bus.reqLayer0.occupancy         2603691250                       # Layer occupancy (ticks)
system.tol2bus.reqLayer0.utilization              1.8                       # Layer utilization (%)
system.tol2bus.respLayer1.occupancy        1953265620                       # Layer occupancy (ticks)
system.tol2bus.respLayer1.utilization             1.4                       # Layer utilization (%)
system.tol2bus.respLayer0.occupancy            866250                       # Layer occupancy (ticks)
system.tol2bus.respLayer0.utilization             0.0                       # Layer utilization (%)
system.voltage_domain.voltage                       1                       # Voltage in Volts
system.clk_domain.clock                          1000                       # Clock period in ticks
system.l2.pwrStateResidencyTicks::UNDEFINED 143356944375                       # Cumulative time (in ticks) in various power states
system.l2.demand_hits::.cpu.inst                   14                       # number of demand (read+write) hits
system.l2.demand_hits::.cpu.data                   11                       # number of demand (read+write) hits
system.l2.demand_hits::total                       25                       # number of demand (read+write) hits
system.l2.overall_hits::.cpu.inst                  14                       # number of overall hits
system.l2.overall_hits::.cpu.data                  11                       # number of overall hits
system.l2.overall_hits::total                      25                       # number of overall hits
system.l2.demand_misses::.cpu.inst                448                       # number of demand (read+write) misses
system.l2.demand_misses::.cpu.data            1041729                       # number of demand (read+write) misses
system.l2.demand_misses::total                1042177                       # number of demand (read+write) misses
system.l2.overall_misses::.cpu.inst               448                       # number of overall misses
system.l2.overall_misses::.cpu.data           1041729                       # number of overall misses
system.l2.overall_misses::total               1042177                       # number of overall misses
system.l2.demand_miss_latency::.cpu.inst     37066250                       # number of demand (read+write) miss cycles
system.l2.demand_miss_latency::.cpu.data  89287097500                       # number of demand (read+write) miss cycles
system.l2.demand_miss_latency::total      89324163750                       # number of demand (read+write) miss cycles
system.l2.overall_miss_latency::.cpu.inst     37066250                       # number of overall miss cycles
system.l2.overall_miss_latency::.cpu.data  89287097500                       # number of overall miss cycles
system.l2.overall_miss_latency::total     89324163750                       # number of overall miss cycles
system.l2.demand_accesses::.cpu.inst              462                       # number of demand (read+write) accesses
system.l2.demand_accesses::.cpu.data          1041740                       # number of demand (read+write) accesses
system.l2.demand_accesses::total              1042202                       # number of demand (read+write) accesses
system.l2.overall_accesses::.cpu.inst             462                       # number of overall (read+write) accesses
system.l2.overall_accesses::.cpu.data         1041740                       # number of overall (read+write) accesses
system.l2.overall_accesses::total             1042202                       # number of overall (read+write) accesses
system.l2.demand_miss_rate::.cpu.inst        0.969697                       # miss rate for demand accesses
system.l2.demand_miss_rate::.cpu.data        0.999989                       # miss rate for demand accesses
system.l2.demand_miss_rate::total            0.999976                       # miss rate for demand accesses
system.l2.overall_miss_rate::.cpu.inst       0.969697                       # miss rate for overall accesses
system.l2.overall_miss_rate::.cpu.data       0.999989                       # miss rate for overall accesses
system.l2.overall_miss_rate::total           0.999976                       # miss rate for overall accesses
system.l2.demand_avg_miss_latency::.cpu.inst 82737.165179                       # average overall miss latency
system.l2.demand_avg_miss_latency::.cpu.data 85710.484685                       # average overall miss latency
system.l2.demand_avg_miss_latency::total 85709.206546                       # average overall miss latency
system.l2.overall_avg_miss_latency::.cpu.inst 82737.165179                       # average overall miss latency
system.l2.overall_avg_miss_latency::.cpu.data 85710.484685                       # average overall miss latency
system.l2.overall_avg_miss_latency::total 85709.206546                       # average overall miss latency
system.l2.blocked_cycles::no_mshrs                  0                       # number of cycles access was blocked
system.l2.blocked_cycles::no_targets                0                       # number of cycles access was blocked
system.l2.blocked::no_mshrs                         0                       # number of cycles access was blocked
system.l2.blocked::no_targets                       0                       # number of cycles access was blocked
system.l2.avg_blocked_cycles::no_mshrs            nan                       # average number of cycles each access was blocked
system.l2.avg_blocked_cycles::no_targets          nan                       # average number of cycles each access was blocked
system.l2.writebacks::.writebacks             1025272                       # number of writebacks
system.l2.writebacks::total                   1025272                       # number of writebacks
system.l2.demand_mshr_hits::.cpu.data               5                       # number of demand (read+write) MSHR hits
system.l2.demand_mshr_hits::total                   5                       # number of demand (read+write) MSHR hits
system.l2.overall_mshr_hits::.cpu.data              5                       # number of overall MSHR hits
system.l2.overall_mshr_hits::total                  5                       # number of overall MSHR hits
system.l2.demand_mshr_misses::.cpu.inst           448                       # number of demand (read+write) MSHR misses
system.l2.demand_mshr_misses::.cpu.data       1041724                       # number of demand (read+write) MSHR misses
system.l2.demand_mshr_misses::total           1042172                       # number of demand (read+write) MSHR misses
system.l2.overall_mshr_misses::.cpu.inst          448                       # number of overall MSHR misses
system.l2.overall_mshr_misses::.cpu.data      1041724                       # number of overall MSHR misses
system.l2.overall_mshr_misses::total          1042172                       # number of overall MSHR misses
system.l2.demand_mshr_miss_latency::.cpu.inst     31341500                       # number of demand (read+write) MSHR miss cycles
system.l2.demand_mshr_miss_latency::.cpu.data  76004722500                       # number of demand (read+write) MSHR miss cycles
system.l2.demand_mshr_miss_latency::total  76036064000                       # number of demand (read+write) MSHR miss cycles
system.l2.overall_mshr_miss_latency::.cpu.inst     31341500                       # number of overall MSHR miss cycles
system.l2.overall_mshr_miss_latency::.cpu.data  76004722500                       # number of overall MSHR miss cycles
system.l2.overall_mshr_miss_latency::total  76036064000                       # number of overall MSHR miss cycles
system.l2.demand_mshr_miss_rate::.cpu.inst     0.969697                       # mshr miss rate for demand accesses
system.l2.demand_mshr_miss_rate::.cpu.data     0.999985                       # mshr miss rate for demand accesses
system.l2.demand_mshr_miss_rate::total       0.999971                       # mshr miss rate for demand accesses
system.l2.overall_mshr_miss_rate::.cpu.inst     0.969697                       # mshr miss rate for overall accesses
system.l2.overall_mshr_miss_rate::.cpu.data     0.999985                       # mshr miss rate for overall accesses
system.l2.overall_mshr_miss_rate::total      0.999971                       # mshr miss rate for overall accesses
system.l2.demand_avg_mshr_miss_latency::.cpu.inst 69958.705357                       # average overall mshr miss latency
system.l2.demand_avg_mshr_miss_latency::.cpu.data 72960.517853                       # average overall mshr miss latency
system.l2.demand_avg_mshr_miss_latency::total 72959.227460                       # average overall mshr miss latency
system.l2.overall_avg_mshr_miss_latency::.cpu.inst 69958.705357                       # average overall mshr miss latency
system.l2.overall_avg_mshr_miss_latency::.cpu.data 72960.517853                       # average overall mshr miss latency
system.l2.overall_avg_mshr_miss_latency::total 72959.227460                       # average overall mshr miss latency
system.l2.replacements                        1025810                       # number of replacements
system.l2.WritebackDirty_hits::.writebacks      1041145                       # number of WritebackDirty hits
system.l2.WritebackDirty_hits::total          1041145                       # number of WritebackDirty hits
system.l2.WritebackDirty_accesses::.writebacks      1041145                       # number of WritebackDirty accesses(hits+misses)
system.l2.WritebackDirty_accesses::total      1041145                       # number of WritebackDirty accesses(hits+misses)
system.l2.WritebackClean_hits::.writebacks           60                       # number of WritebackClean hits
system.l2.WritebackClean_hits::total               60                       # number of WritebackClean hits
system.l2.WritebackClean_accesses::.writebacks           60                       # number of WritebackClean accesses(hits+misses)
system.l2.WritebackClean_accesses::total           60                       # number of WritebackClean accesses(hits+misses)
system.l2.ReadExReq_misses::.cpu.data         1041630                       # number of ReadExReq misses
system.l2.ReadExReq_misses::total             1041630                       # number of ReadExReq misses
system.l2.ReadExReq_miss_latency::.cpu.data  89278451250                       # number of ReadExReq miss cycles
system.l2.ReadExReq_miss_latency::total   89278451250                       # number of ReadExReq miss cycles
system.l2.ReadExReq_accesses::.cpu.data       1041630                       # number of ReadExReq accesses(hits+misses)
system.l2.ReadExReq_accesses::total           1041630                       # number of ReadExReq accesses(hits+misses)
system.l2.ReadExReq_miss_rate::.cpu.data            1                       # miss rate for ReadExReq accesses
system.l2.ReadExReq_miss_rate::total                1                       # miss rate for ReadExReq accesses
system.l2.ReadExReq_avg_miss_latency::.cpu.data 85710.330204                       # average ReadExReq miss latency
system.l2.ReadExReq_avg_miss_latency::total 85710.330204                       # average ReadExReq miss latency
system.l2.ReadExReq_mshr_misses::.cpu.data      1041630                       # number of ReadExReq MSHR misses
system.l2.ReadExReq_mshr_misses::total        1041630                       # number of ReadExReq MSHR misses
system.l2.ReadExReq_mshr_miss_latency::.cpu.data  75997673500                       # number of ReadExReq MSHR miss cycles
system.l2.ReadExReq_mshr_miss_latency::total  75997673500                       # number of ReadExReq MSHR miss cycles
system.l2.ReadExReq_mshr_miss_rate::.cpu.data            1                       # mshr miss rate for ReadExReq accesses
system.l2.ReadExReq_mshr_miss_rate::total            1                       # mshr miss rate for ReadExReq accesses
system.l2.ReadExReq_avg_mshr_miss_latency::.cpu.data 72960.334764                       # average ReadExReq mshr miss latency
system.l2.ReadExReq_avg_mshr_miss_latency::total 72960.334764                       # average ReadExReq mshr miss latency
system.l2.ReadCleanReq_hits::.cpu.inst             14                       # number of ReadCleanReq hits
system.l2.ReadCleanReq_hits::total                 14                       # number of ReadCleanReq hits
system.l2.ReadCleanReq_misses::.cpu.inst          448                       # number of ReadCleanReq misses
system.l2.ReadCleanReq_misses::total              448                       # number of ReadCleanReq misses
system.l2.ReadCleanReq_miss_latency::.cpu.inst     37066250                       # number of ReadCleanReq miss cycles
system.l2.ReadCleanReq_miss_latency::total     37066250                       # number of ReadCleanReq miss cycles
system.l2.ReadCleanReq_accesses::.cpu.inst          462                       # number of ReadCleanReq accesses(hits+misses)
system.l2.ReadCleanReq_accesses::total            462                       # number of ReadCleanReq accesses(hits+misses)
system.l2.ReadCleanReq_miss_rate::.cpu.inst     0.969697                       # miss rate for ReadCleanReq accesses
system.l2.ReadCleanReq_miss_rate::total      0.969697                       # miss rate for ReadCleanReq accesses
system.l2.ReadCleanReq_avg_miss_latency::.cpu.inst 82737.165179                       # average ReadCleanReq miss latency
system.l2.ReadCleanReq_avg_miss_latency::total 82737.165179                       # average ReadCleanReq miss latency
system.l2.ReadCleanReq_mshr_misses::.cpu.inst          448                       # number of ReadCleanReq MSHR misses
system.l2.ReadCleanReq_mshr_misses::total          448                       # number of ReadCleanReq MSHR misses
system.l2.ReadCleanReq_mshr_miss_latency::.cpu.inst     31341500                       # number of ReadCleanReq MSHR miss cycles
system.l2.ReadCleanReq_mshr_miss_latency::total     31341500                       # number of ReadCleanReq MSHR miss cycles
system.l2.ReadCleanReq_mshr_miss_rate::.cpu.inst     0.969697                       # mshr miss rate for ReadCleanReq accesses
system.l2.ReadCleanReq_mshr_miss_rate::total     0.969697                       # mshr miss rate for ReadCleanReq accesses
system.l2.ReadCleanReq_avg_mshr_miss_latency::.cpu.inst 69958.705357                       # average ReadCleanReq mshr miss latency
system.l2.ReadCleanReq_avg_mshr_miss_latency::total 69958.705357                       # average ReadCleanReq mshr miss latency
system.l2.ReadSharedReq_hits::.cpu.data            11                       # number of ReadSharedReq hits
system.l2.ReadSharedReq_hits::total                11                       # number of ReadSharedReq hits
system.l2.ReadSharedReq_misses::.cpu.data           99                       # number of ReadSharedReq misses
system.l2.ReadSharedReq_misses::total              99                       # number of ReadSharedReq misses
system.l2.ReadSharedReq_miss_latency::.cpu.data      8646250                       # number of ReadSharedReq miss cycles
system.l2.ReadSharedReq_miss_latency::total      8646250                       # number of ReadSharedReq miss cycles
system.l2.ReadSharedReq_accesses::.cpu.data          110                       # number of ReadSharedReq accesses(hits+misses)
system.l2.ReadSharedReq_accesses::total           110                       # number of ReadSharedReq accesses(hits+misses)
system.l2.ReadSharedReq_miss_rate::.cpu.data     0.900000                       # miss rate for ReadSharedReq accesses
system.l2.ReadSharedReq_miss_rate::total     0.900000                       # miss rate for ReadSharedReq accesses
system.l2.ReadSharedReq_avg_miss_latency::.cpu.data 87335.858586                       # average ReadSharedReq miss latency
system.l2.ReadSharedReq_avg_miss_latency::total 87335.858586                       # average ReadSharedReq miss latency
system.l2.ReadSharedReq_mshr_hits::.cpu.data            5                       # number of ReadSharedReq MSHR hits
system.l2.ReadSharedReq_mshr_hits::total            5                       # number of ReadSharedReq MSHR hits
system.l2.ReadSharedReq_mshr_misses::.cpu.data           94                       # number of ReadSharedReq MSHR misses
system.l2.ReadSharedReq_mshr_misses::total           94                       # number of ReadSharedReq MSHR misses
system.l2.ReadSharedReq_mshr_miss_latency::.cpu.data      7049000                       # number of ReadSharedReq MSHR miss cycles
system.l2.ReadSharedReq_mshr_miss_latency::total      7049000                       # number of ReadSharedReq MSHR miss cycles
system.l2.ReadSharedReq_mshr_miss_rate::.cpu.data     0.854545                       # mshr miss rate for ReadSharedReq accesses
system.l2.ReadSharedReq_mshr_miss_rate::total     0.854545                       # mshr miss rate for ReadSharedReq accesses
system.l2.ReadSharedReq_avg_mshr_miss_latency::.cpu.data 74989.361702                       # average ReadSharedReq mshr miss latency
system.l2.ReadSharedReq_avg_mshr_miss_latency::total 74989.361702                       # average ReadSharedReq mshr miss latency
system.l2.tags.pwrStateResidencyTicks::UNDEFINED 143356944375                       # Cumulative time (in ticks) in various power states
system.l2.tags.tagsinuse                 16262.762740                       # Cycle average of tags in use
system.l2.tags.total_refs                     2083464                       # Total number of references to valid blocks.
system.l2.tags.sampled_refs                   1042194                       # Sample count of references to valid blocks.
system.l2.tags.avg_refs                      1.999113                       # Average number of references to valid blocks.
system.l2.tags.warmup_cycle                     78000                       # Cycle when the warmup percentage was hit.
system.l2.tags.occ_blocks::.writebacks       0.306661                       # Average occupied blocks per requestor
system.l2.tags.occ_blocks::.cpu.inst         6.304552                       # Average occupied blocks per requestor
system.l2.tags.occ_blocks::.cpu.data     16256.151527                       # Average occupied blocks per requestor
system.l2.tags.occ_percent::.writebacks      0.000019                       # Average percentage of cache occupancy
system.l2.tags.occ_percent::.cpu.inst        0.000385                       # Average percentage of cache occupancy
system.l2.tags.occ_percent::.cpu.data        0.992197                       # Average percentage of cache occupancy
system.l2.tags.occ_percent::total            0.992600                       # Average percentage of cache occupancy
system.l2.tags.occ_task_id_blocks::1024         16384                       # Occupied blocks per task id
system.l2.tags.age_task_id_blocks_1024::0           73                       # Occupied blocks per task id
system.l2.tags.age_task_id_blocks_1024::1          653                       # Occupied blocks per task id
system.l2.tags.age_task_id_blocks_1024::2         6540                       # Occupied blocks per task id
system.l2.tags.age_task_id_blocks_1024::3         9118                       # Occupied blocks per task id
system.l2.tags.occ_task_id_percent::1024            1                       # Percentage of cache occupancy per task id
system.l2.tags.tag_accesses                  17709946                       # Number of tag accesses
system.l2.tags.data_accesses                 17709946                       # Number of data accesses
system.cpu_voltage_domain.voltage                   1                       # Voltage in Volts
system.mem_ctrls.pwrStateResidencyTicks::UNDEFINED 143356944375                       # Cumulative time (in ticks) in various power states
system.mem_ctrls.bytes_read::.cpu.inst          28672                       # Number of bytes read from this memory
system.mem_ctrls.bytes_read::.cpu.data       66670336                       # Number of bytes read from this memory
system.mem_ctrls.bytes_read::total           66699008                       # Number of bytes read from this memory
system.mem_ctrls.bytes_inst_read::.cpu.inst        28672                       # Number of instructions bytes read from this memory
system.mem_ctrls.bytes_inst_read::total         28672                       # Number of instructions bytes read from this memory
system.mem_ctrls.bytes_written::.writebacks     65617408                       # Number of bytes written to this memory
system.mem_ctrls.bytes_written::total        65617408                       # Number of bytes written to this memory
system.mem_ctrls.num_reads::.cpu.inst             448                       # Number of read requests responded to by this memory
system.mem_ctrls.num_reads::.cpu.data         1041724                       # Number of read requests responded to by this memory
system.mem_ctrls.num_reads::total             1042172                       # Number of read requests responded to by this memory
system.mem_ctrls.num_writes::.writebacks      1025272                       # Number of write requests responded to by this memory
system.mem_ctrls.num_writes::total            1025272                       # Number of write requests responded to by this memory
system.mem_ctrls.bw_read::.cpu.inst            200004                       # Total read bandwidth from this memory (bytes/s)
system.mem_ctrls.bw_read::.cpu.data         465065270                       # Total read bandwidth from this memory (bytes/s)
system.mem_ctrls.bw_read::total             465265274                       # Total read bandwidth from this memory (bytes/s)
system.mem_ctrls.bw_inst_read::.cpu.inst       200004                       # Instruction read bandwidth from this memory (bytes/s)
system.mem_ctrls.bw_inst_read::total           200004                       # Instruction read bandwidth from this memory (bytes/s)
system.mem_ctrls.bw_write::.writebacks      457720470                       # Write bandwidth from this memory (bytes/s)
system.mem_ctrls.bw_write::total            457720470                       # Write bandwidth from this memory (bytes/s)
system.mem_ctrls.bw_total::.writebacks      457720470                       # Total bandwidth to/from this memory (bytes/s)
system.mem_ctrls.bw_total::.cpu.inst           200004                       # Total bandwidth to/from this memory (bytes/s)
system.mem_ctrls.bw_total::.cpu.data        465065270                       # Total bandwidth to/from this memory (bytes/s)
system.mem_ctrls.bw_total::total            922985744                       # Total bandwidth to/from this memory (bytes/s)
system.mem_ctrls.avgPriority_.writebacks::samples   1025272.00                       # Average QoS priority value for accepted requests
system.mem_ctrls.avgPriority_.cpu.inst::samples       448.00                       # Average QoS priority value for accepted requests
system.mem_ctrls.avgPriority_.cpu.data::samples   1041724.00                       # Average QoS priority value for accepted requests
system.mem_ctrls.priorityMinLatency      0.000000018750                       # per QoS priority minimum request to response latency (s)
system.mem_ctrls.priorityMaxLatency      0.000527185000                       # per QoS priority maximum request to response latency (s)
system.mem_ctrls.numReadWriteTurnArounds        62287                       # Number of turnarounds from READ to WRITE
system.mem_ctrls.numWriteReadTurnArounds        62287                       # Number of turnarounds from WRITE to READ
system.mem_ctrls.numStayReadState             3083591                       # Number of times bus staying in READ state
system.mem_ctrls.numStayWriteState             962973                       # Number of times bus staying in WRITE state
system.mem_ctrls.readReqs                     1042172                       # Number of read requests accepted
system.mem_ctrls.writeReqs                    1025272                       # Number of write requests accepted
system.mem_ctrls.readBursts                   1042172                       # Number of DRAM read bursts, including those serviced by the write queue
system.mem_ctrls.writeBursts                  1025272                       # Number of DRAM write bursts, including those merged in the write queue
system.mem_ctrls.servicedByWrQ                      0                       # Number of DRAM read bursts serviced by the write queue
system.mem_ctrls.mergedWrBursts                     0                       # Number of DRAM write bursts merged with an existing one
system.mem_ctrls.neitherReadNorWriteReqs            0                       # Number of requests that are neither read nor write
system.mem_ctrls.perBankRdBursts::0             65241                       # Per bank write bursts
system.mem_ctrls.perBankRdBursts::1             65212                       # Per bank write bursts
system.mem_ctrls.perBankRdBursts::2             65160                       # Per bank write bursts
system.mem_ctrls.perBankRdBursts::3             65152                       # Per bank write bursts
system.mem_ctrls.perBankRdBursts::4             65152                       # Per bank write bursts
system.mem_ctrls.perBankRdBursts::5             65158                       # Per bank write bursts
system.mem_ctrls.perBankRdBursts::6             65180                       # Per bank write bursts
system.mem_ctrls.perBankRdBursts::7             65175                       # Per bank write bursts
system.mem_ctrls.perBankRdBursts::8             65040                       # Per bank write bursts
system.mem_ctrls.perBankRdBursts::9             65089                       # Per bank write bursts
system.mem_ctrls.perBankRdBursts::10            65059                       # Per bank write bursts
system.mem_ctrls.perBankRdBursts::11            65079                       # Per bank write bursts
system.mem_ctrls.perBankRdBursts::12            65050                       # Per bank write bursts
system.mem_ctrls.perBankRdBursts::13            65104                       # Per bank write bursts
system.mem_ctrls.perBankRdBursts::14            65148                       # Per bank write bursts
system.mem_ctrls.perBankRdBursts::15            65173                       # Per bank write bursts
system.mem_ctrls.perBankWrBursts::0             64128                       # Per bank write bursts
system.mem_ctrls.perBankWrBursts::1             64128                       # Per bank write bursts
system.mem_ctrls.perBankWrBursts::2             64128                       # Per bank write bursts
system.mem_ctrls.perBankWrBursts::3             64128                       # Per bank write bursts
system.mem_ctrls.perBankWrBursts::4             64128                       # Per bank write bursts
system.mem_ctrls.perBankWrBursts::5             64128                       # Per bank write bursts
system.mem_ctrls.perBankWrBursts::6             64128                       # Per bank write bursts
system.mem_ctrls.perBankWrBursts::7             64069                       # Per bank write bursts
system.mem_ctrls.perBankWrBursts::8             64000                       # Per bank write bursts
system.mem_ctrls.perBankWrBursts::9             64035                       # Per bank write bursts
system.mem_ctrls.perBankWrBursts::10            64011                       # Per bank write bursts
system.mem_ctrls.perBankWrBursts::11            64027                       # Per bank write bursts
system.mem_ctrls.perBankWrBursts::12            64007                       # Per bank write bursts
system.mem_ctrls.perBankWrBursts::13            64005                       # Per bank write bursts
system.mem_ctrls.perBankWrBursts::14            64065                       # Per bank write bursts
system.mem_ctrls.perBankWrBursts::15            64128                       # Per bank write bursts
system.mem_ctrls.avgRdQLen                       1.00                       # Average read queue length when enqueuing
system.mem_ctrls.avgWrQLen                      25.25                       # Average write queue length when enqueuing
system.mem_ctrls.totQLat                  11014385000                       # Total ticks spent queuing
system.mem_ctrls.totBusLat                 5210860000                       # Total ticks spent in databus transfers
system.mem_ctrls.totMemAccLat             30555110000                       # Total ticks spent from burst creation until serviced by the DRAM
system.mem_ctrls.avgQLat                     10568.68                       # Average queueing delay per DRAM burst
system.mem_ctrls.avgBusLat                    5000.00                       # Average bus latency per DRAM burst
system.mem_ctrls.avgMemAccLat                29318.68                       # Average memory access latency per DRAM burst
system.mem_ctrls.numRdRetry                         0                       # Number of times read queue was full causing retry
system.mem_ctrls.numWrRetry                         0                       # Number of times write queue was full causing retry
system.mem_ctrls.readRowHits                   937649                       # Number of row buffer hits during reads
system.mem_ctrls.writeRowHits                  934621                       # Number of row buffer hits during writes
system.mem_ctrls.readRowHitRate                 89.97                       # Row buffer hit rate for reads
system.mem_ctrls.writeRowHitRate                91.16                       # Row buffer hit rate for writes
system.mem_ctrls.readPktSize::0                     0                       # Read request sizes (log2)
system.mem_ctrls.readPktSize::1                     0                       # Read request sizes (log2)
system.mem_ctrls.readPktSize::2                     0                       # Read request sizes (log2)
system.mem_ctrls.readPktSize::3                     0                       # Read request sizes (log2)
system.mem_ctrls.readPktSize::4                     0                       # Read request sizes (log2)
system.mem_ctrls.readPktSize::5                     0                       # Read request sizes (log2)
system.mem_ctrls.readPktSize::6               1042172                       # Read request sizes (log2)
system.mem_ctrls.writePktSize::0                    0                       # Write request sizes (log2)
system.mem_ctrls.writePktSize::1                    0                       # Write request sizes (log2)
system.mem_ctrls.writePktSize::2                    0                       # Write request sizes (log2)
system.mem_ctrls.writePktSize::3                    0                       # Write request sizes (log2)
system.mem_ctrls.writePktSize::4                    0                       # Write request sizes (log2)
system.mem_ctrls.writePktSize::5                    0                       # Write request sizes (log2)
system.mem_ctrls.writePktSize::6              1025272                       # Write request sizes (log2)
system.mem_ctrls.rdQLenPdf::0                 1042085                       # What read queue length does an incoming req see
system.mem_ctrls.rdQLenPdf::1                      81                       # What read queue length does an incoming req see
system.mem_ctrls.rdQLenPdf::2                       6                       # What read queue length does an incoming req see
system.mem_ctrls.rdQLenPdf::3                       0                       # What read queue length does an incoming req see
system.mem_ctrls.rdQLenPdf::4                       0                       # What read queue length does an incoming req see
system.mem_ctrls.rdQLenPdf::5                       0                       # What read queue length does an incoming req see
system.mem_ctrls.rdQLenPdf::6                       0                       # What read queue length does an incoming req see
system.mem_ctrls.rdQLenPdf::7                       0                       # What read queue length does an incoming req see
system.mem_ctrls.rdQLenPdf::8                       0                       # What read queue length does an incoming req see
system.mem_ctrls.rdQLenPdf::9                       0                       # What read queue length does an incoming req see
system.mem_ctrls.rdQLenPdf::10                      0                       # What read queue length does an incoming req see
system.mem_ctrls.rdQLenPdf::11                      0                       # What read queue length does an incoming req see
system.mem_ctrls.rdQLenPdf::12                      0                       # What read queue length does an incoming req see
system.mem_ctrls.rdQLenPdf::13                      0                       # What read queue length does an incoming req see
system.mem_ctrls.rdQLenPdf::14                      0                       # What read queue length does an incoming req see
system.mem_ctrls.rdQLenPdf::15                      0                       # What read queue length does an incoming req see
system.mem_ctrls.rdQLenPdf::16                      0                       # What read queue length does an incoming req see
system.mem_ctrls.rdQLenPdf::17                      0                       # What read queue length does an incoming req see
system.mem_ctrls.rdQLenPdf::18                      0                       # What read queue length does an incoming req see
system.mem_ctrls.rdQLenPdf::19                      0                       # What read queue length does an incoming req see
system.mem_ctrls.rdQLenPdf::20                      0                       # What read queue length does an incoming req see
system.mem_ctrls.rdQLenPdf::21                      0                       # What read queue length does an incoming req see
system.mem_ctrls.rdQLenPdf::22                      0                       # What read queue length does an incoming req see
system.mem_ctrls.rdQLenPdf::23                      0                       # What read queue length does an incoming req see
system.mem_ctrls.rdQLenPdf::24                      0                       # What read queue length does an incoming req see
system.mem_ctrls.rdQLenPdf::25                      0                       # What read queue length does an incoming req see
system.mem_ctrls.rdQLenPdf::26                      0                       # What read queue length does an incoming req see
system.mem_ctrls.rdQLenPdf::27                      0                       # What read queue length does an incoming req see
system.mem_ctrls.rdQLenPdf::28                      0                       # What read queue length does an incoming req see
system.mem_ctrls.rdQLenPdf::29                      0                       # What read queue length does an incoming req see
system.mem_ctrls.rdQLenPdf::30                      0                       # What read queue length does an incoming req see
system.mem_ctrls.rdQLenPdf::31                      0                       # What read queue length does an incoming req see
system.mem_ctrls.wrQLenPdf::0                       1                       # What write queue length does an incoming req see
system.mem_ctrls.wrQLenPdf::1                       1                       # What write queue length does an incoming req see
system.mem_ctrls.wrQLenPdf::2                       1                       # What write queue length does an incoming req see
system.mem_ctrls.wrQLenPdf::3                       1                       # What write queue length does an incoming req see
system.mem_ctrls.wrQLenPdf::4                       1                       # What write queue length does an incoming req see
system.mem_ctrls.wrQLenPdf::5                       1                       # What write queue length does an incoming req see
system.mem_ctrls.wrQLenPdf::6                       1                       # What write queue length does an incoming req see
system.mem_ctrls.wrQLenPdf::7                       1                       # What write queue length does an incoming req see
system.mem_ctrls.wrQLenPdf::8                       1                       # What write queue length does an incoming req see
system.mem_ctrls.wrQLenPdf::9                       1                       # What write queue length does an incoming req see
system.mem_ctrls.wrQLenPdf::10                      1                       # What write queue length does an incoming req see
system.mem_ctrls.wrQLenPdf::11                      1                       # What write queue length does an incoming req see
system.mem_ctrls.wrQLenPdf::12                      1                       # What write queue length does an incoming req see
system.mem_ctrls.wrQLenPdf::13                      1                       # What write queue length does an incoming req see
system.mem_ctrls.wrQLenPdf::14                      1                       # What write queue length does an incoming req see
system.mem_ctrls.wrQLenPdf::15                    239                       # What write queue length does an incoming req see
system.mem_ctrls.wrQLenPdf::16                  27692                       # What write queue length does an incoming req see
system.mem_ctrls.wrQLenPdf::17                  62287                       # What write queue length does an incoming req see
system.mem_ctrls.wrQLenPdf::18                  62288                       # What write queue length does an incoming req see
system.mem_ctrls.wrQLenPdf::19                  62290                       # What write queue length does an incoming req see
system.mem_ctrls.wrQLenPdf::20                  62288                       # What write queue length does an incoming req see
system.mem_ctrls.wrQLenPdf::21                  62289                       # What write queue length does an incoming req see
system.mem_ctrls.wrQLenPdf::22                  62288                       # What write queue length does an incoming req see
system.mem_ctrls.wrQLenPdf::23                  62290                       # What write queue length does an incoming req see
system.mem_ctrls.wrQLenPdf::24                  63006                       # What write queue length does an incoming req see
system.mem_ctrls.wrQLenPdf::25                  62288                       # What write queue length does an incoming req see
system.mem_ctrls.wrQLenPdf::26                  62288                       # What write queue length does an incoming req see
system.mem_ctrls.wrQLenPdf::27                  62288                       # What write queue length does an incoming req see
system.mem_ctrls.wrQLenPdf::28                  62288                       # What write queue length does an incoming req see
system.mem_ctrls.wrQLenPdf::29                  62287                       # What write queue length does an incoming req see
system.mem_ctrls.wrQLenPdf::30                  62287                       # What write queue length does an incoming req see
system.mem_ctrls.wrQLenPdf::31                  62287                       # What write queue length does an incoming req see
system.mem_ctrls.wrQLenPdf::32                  62287                       # What write queue length does an incoming req see
system.mem_ctrls.wrQLenPdf::33                      0                       # What write queue length does an incoming req see
system.mem_ctrls.wrQLenPdf::34                      0                       # What write queue length does an incoming req see
system.mem_ctrls.wrQLenPdf::35                      0                       # What write queue length does an incoming req see
system.mem_ctrls.wrQLenPdf::36                      0                       # What write queue length does an incoming req see
system.mem_ctrls.wrQLenPdf::37                      0                       # What write queue length does an incoming req see
system.mem_ctrls.wrQLenPdf::38                      0                       # What write queue length does an incoming req see
system.mem_ctrls.wrQLenPdf::39                      0                       # What write queue length does an incoming req see
system.mem_ctrls.wrQLenPdf::40                      0                       # What write queue length does an incoming req see
system.mem_ctrls.wrQLenPdf::41                      0                       # What write queue length does an incoming req see
system.mem_ctrls.wrQLenPdf::42                      0                       # What write queue length does an incoming req see
system.mem_ctrls.wrQLenPdf::43                      0                       # What write queue length does an incoming req see
system.mem_ctrls.wrQLenPdf::44                      0                       # What write queue length does an incoming req see
system.mem_ctrls.wrQLenPdf::45                      0                       # What write queue length does an incoming req see
system.mem_ctrls.wrQLenPdf::46                      0                       # What write queue length does an incoming req see
system.mem_ctrls.wrQLenPdf::47                      0                       # What write queue length does an incoming req see
system.mem_ctrls.wrQLenPdf::48                      0                       # What write queue length does an incoming req see
system.mem_ctrls.wrQLenPdf::49                      0                       # What write queue length does an incoming req see
system.mem_ctrls.wrQLenPdf::50                      0                       # What write queue length does an incoming req see
system.mem_ctrls.wrQLenPdf::51                      0                       # What write queue length does an incoming req see
system.mem_ctrls.wrQLenPdf::52                      0                       # What write queue length does an incoming req see
system.mem_ctrls.wrQLenPdf::53                      0                       # What write queue length does an incoming req see
system.mem_ctrls.wrQLenPdf::54                      0                       # What write queue length does an incoming req see
system.mem_ctrls.wrQLenPdf::55                      0                       # What write queue length does an incoming req see
system.mem_ctrls.wrQLenPdf::56                      0                       # What write queue length does an incoming req see
system.mem_ctrls.wrQLenPdf::57                      0                       # What write queue length does an incoming req see
system.mem_ctrls.wrQLenPdf::58                      0                       # What write queue length does an incoming req see
system.mem_ctrls.wrQLenPdf::59                      0                       # What write queue length does an incoming req see
system.mem_ctrls.wrQLenPdf::60                      0                       # What write queue length does an incoming req see
system.mem_ctrls.wrQLenPdf::61                      0                       # What write queue length does an incoming req see
system.mem_ctrls.wrQLenPdf::62                      0                       # What write queue length does an incoming req see
system.mem_ctrls.wrQLenPdf::63                      0                       # What write queue length does an incoming req see
system.mem_ctrls.bytesPerActivate::samples       195144                       # Bytes accessed per row activation
system.mem_ctrls.bytesPerActivate::mean    678.031566                       # Bytes accessed per row activation
system.mem_ctrls.bytesPerActivate::gmean   448.552952                       # Bytes accessed per row activation
system.mem_ctrls.bytesPerActivate::stdev   407.205405                       # Bytes accessed per row activation
system.mem_ctrls.bytesPerActivate::0-127        42328     21.69%     21.69% # Bytes accessed per row activation
system.mem_ctrls.bytesPerActivate::128-255         8310      4.26%     25.95% # Bytes accessed per row activation
system.mem_ctrls.bytesPerActivate::256-383         8014      4.11%     30.06% # Bytes accessed per row activation
system.mem_ctrls.bytesPerActivate::384-511         8444      4.33%     34.38% # Bytes accessed per row activation
system.mem_ctrls.bytesPerActivate::512-639         7149      3.66%     38.05% # Bytes accessed per row activation
system.mem_ctrls.bytesPerActivate::640-767         8004      4.10%     42.15% # Bytes accessed per row activation
system.mem_ctrls.bytesPerActivate::768-895         8315      4.26%     46.41% # Bytes accessed per row activation
system.mem_ctrls.bytesPerActivate::896-1023         7066      3.62%     50.03% # Bytes accessed per row activation
system.mem_ctrls.bytesPerActivate::1024-1151        97514     49.97%    100.00% # Bytes accessed per row activation
system.mem_ctrls.bytesPerActivate::total       195144                       # Bytes accessed per row activation
system.mem_ctrls.rdPerTurnAround::samples        62287                       # Reads before turning the bus around for writes
system.mem_ctrls.rdPerTurnAround::mean      16.731581                       # Reads before turning the bus around for writes
system.mem_ctrls.rdPerTurnAround::gmean     16.456650                       # Reads before turning the bus around for writes
system.mem_ctrls.rdPerTurnAround::stdev     65.336841                       # Reads before turning the bus around for writes
system.mem_ctrls.rdPerTurnAround::0-511         62286    100.00%    100.00% # Reads before turning the bus around for writes
system.mem_ctrls.rdPerTurnAround::15872-16383            1      0.00%    100.00% # Reads before turning the bus around for writes
system.mem_ctrls.rdPerTurnAround::total         62287                       # Reads before turning the bus around for writes
system.mem_ctrls.wrPerTurnAround::samples        62287                       # Writes before turning the bus around for reads
system.mem_ctrls.wrPerTurnAround::mean      16.459984                       # Writes before turning the bus around for reads
system.mem_ctrls.wrPerTurnAround::gmean     16.451571                       # Writes before turning the bus around for reads
system.mem_ctrls.wrPerTurnAround::stdev      0.528815                       # Writes before turning the bus around for reads
system.mem_ctrls.wrPerTurnAround::16            34600     55.55%     55.55% # Writes before turning the bus around for reads
system.mem_ctrls.wrPerTurnAround::17            26731     42.92%     98.47% # Writes before turning the bus around for reads
system.mem_ctrls.wrPerTurnAround::18              949      1.52%     99.99% # Writes before turning the bus around for reads
system.mem_ctrls.wrPerTurnAround::19                6      0.01%    100.00% # Writes before turning the bus around for reads
[...]
system.cpu.icache.tags.occ_blocks::.cpu.inst   379.821932                       # Average occupied blocks per requestor
system.cpu.icache.tags.occ_percent::.cpu.inst     0.741840                       # Average percentage of cache occupancy
system.cpu.icache.tags.occ_percent::total     0.741840                       # Average percentage of cache occupancy
system.cpu.icache.tags.occ_task_id_blocks::1024          400                       # Occupied blocks per task id
system.cpu.icache.tags.age_task_id_blocks_1024::4          400                       # Occupied blocks per task id
system.cpu.icache.tags.occ_task_id_percent::1024     0.781250                       # Percentage of cache occupancy per task id
system.cpu.icache.tags.tag_accesses         137501198                       # Number of tag accesses
system.cpu.icache.tags.data_accesses        137501198                       # Number of data accesses
system.cpu.dtb.walker.pwrStateResidencyTicks::UNDEFINED 143356944375                       # Cumulative time (in ticks) in various power states
system.cpu.dtb.stage2_mmu.stage2_tlb.walker.pwrStateResidencyTicks::UNDEFINED 143356944375                       # Cumulative time (in ticks) in various power states
system.cpu.dcache.pwrStateResidencyTicks::UNDEFINED 143356944375                       # Cumulative time (in ticks) in various power states
system.cpu.dcache.demand_hits::.cpu.data     31250498                       # number of demand (read+write) hits
system.cpu.dcache.demand_hits::total         31250498                       # number of demand (read+write) hits
system.cpu.dcache.overall_hits::.cpu.data     31250511                       # number of overall hits
system.cpu.dcache.overall_hits::total        31250511                       # number of overall hits
system.cpu.dcache.demand_misses::.cpu.data      2083351                       # number of demand (read+write) misses
system.cpu.dcache.demand_misses::total        2083351                       # number of demand (read+write) misses
system.cpu.dcache.overall_misses::.cpu.data      2083362                       # number of overall misses
system.cpu.dcache.overall_misses::total       2083362                       # number of overall misses
system.cpu.dcache.demand_miss_latency::.cpu.data 182470300000                       # number of demand (read+write) miss cycles
system.cpu.dcache.demand_miss_latency::total 182470300000                       # number of demand (read+write) miss cycles
system.cpu.dcache.overall_miss_latency::.cpu.data 182470300000                       # number of overall miss cycles
system.cpu.dcache.overall_miss_latency::total 182470300000                       # number of overall miss cycles
system.cpu.dcache.demand_accesses::.cpu.data     33333849                       # number of demand (read+write) accesses
system.cpu.dcache.demand_accesses::total     33333849                       # number of demand (read+write) accesses
system.cpu.dcache.overall_accesses::.cpu.data     33333873                       # number of overall (read+write) accesses
system.cpu.dcache.overall_accesses::total     33333873                       # number of overall (read+write) accesses
system.cpu.dcache.demand_miss_rate::.cpu.data     0.062500                       # miss rate for demand accesses
system.cpu.dcache.demand_miss_rate::total     0.062500                       # miss rate for demand accesses
system.cpu.dcache.overall_miss_rate::.cpu.data     0.062500                       # miss rate for overall accesses
system.cpu.dcache.overall_miss_rate::total     0.062500                       # miss rate for overall accesses
system.cpu.dcache.demand_avg_miss_latency::.cpu.data 87585.001279                       # average overall miss latency
system.cpu.dcache.demand_avg_miss_latency::total 87585.001279                       # average overall miss latency
system.cpu.dcache.overall_avg_miss_latency::.cpu.data 87584.538837                       # average overall miss latency
system.cpu.dcache.overall_avg_miss_latency::total 87584.538837                       # average overall miss latency
system.cpu.dcache.blocked_cycles::no_mshrs            0                       # number of cycles access was blocked
system.cpu.dcache.blocked_cycles::no_targets            0                       # number of cycles access was blocked
system.cpu.dcache.blocked::no_mshrs                 0                       # number of cycles access was blocked
system.cpu.dcache.blocked::no_targets               0                       # number of cycles access was blocked
system.cpu.dcache.avg_blocked_cycles::no_mshrs          nan                       # average number of cycles each access was blocked
system.cpu.dcache.avg_blocked_cycles::no_targets          nan                       # average number of cycles each access was blocked
system.cpu.dcache.writebacks::.writebacks      1041145                       # number of writebacks
system.cpu.dcache.writebacks::total           1041145                       # number of writebacks
system.cpu.dcache.demand_mshr_hits::.cpu.data      1041623                       # number of demand (read+write) MSHR hits
system.cpu.dcache.demand_mshr_hits::total      1041623                       # number of demand (read+write) MSHR hits
system.cpu.dcache.overall_mshr_hits::.cpu.data      1041623                       # number of overall MSHR hits
system.cpu.dcache.overall_mshr_hits::total      1041623                       # number of overall MSHR hits
system.cpu.dcache.demand_mshr_misses::.cpu.data      1041728                       # number of demand (read+write) MSHR misses
system.cpu.dcache.demand_mshr_misses::total      1041728                       # number of demand (read+write) MSHR misses
system.cpu.dcache.overall_mshr_misses::.cpu.data      1041736                       # number of overall MSHR misses
system.cpu.dcache.overall_mshr_misses::total      1041736                       # number of overall MSHR misses
system.cpu.dcache.demand_mshr_miss_latency::.cpu.data  91239480000                       # number of demand (read+write) MSHR miss cycles
system.cpu.dcache.demand_mshr_miss_latency::total  91239480000                       # number of demand (read+write) MSHR miss cycles
system.cpu.dcache.overall_mshr_miss_latency::.cpu.data  91240155000                       # number of overall MSHR miss cycles
system.cpu.dcache.overall_mshr_miss_latency::total  91240155000                       # number of overall MSHR miss cycles
system.cpu.dcache.demand_mshr_miss_rate::.cpu.data     0.031251                       # mshr miss rate for demand accesses
system.cpu.dcache.demand_mshr_miss_rate::total     0.031251                       # mshr miss rate for demand accesses
system.cpu.dcache.overall_mshr_miss_rate::.cpu.data     0.031252                       # mshr miss rate for overall accesses
system.cpu.dcache.overall_mshr_miss_rate::total     0.031252                       # mshr miss rate for overall accesses
system.cpu.dcache.demand_avg_mshr_miss_latency::.cpu.data 87584.743810                       # average overall mshr miss latency
system.cpu.dcache.demand_avg_mshr_miss_latency::total 87584.743810                       # average overall mshr miss latency
system.cpu.dcache.overall_avg_mshr_miss_latency::.cpu.data 87584.719161                       # average overall mshr miss latency
system.cpu.dcache.overall_avg_mshr_miss_latency::total 87584.719161                       # average overall mshr miss latency
system.cpu.dcache.replacements                1041228                       # number of replacements
system.cpu.dcache.ReadReq_hits::.cpu.data     16666861                       # number of ReadReq hits
system.cpu.dcache.ReadReq_hits::total        16666861                       # number of ReadReq hits
system.cpu.dcache.ReadReq_misses::.cpu.data          111                       # number of ReadReq misses
system.cpu.dcache.ReadReq_misses::total           111                       # number of ReadReq misses
system.cpu.dcache.ReadReq_miss_latency::.cpu.data      9208125                       # number of ReadReq miss cycles
system.cpu.dcache.ReadReq_miss_latency::total      9208125                       # number of ReadReq miss cycles
system.cpu.dcache.ReadReq_accesses::.cpu.data     16666972                       # number of ReadReq accesses(hits+misses)
system.cpu.dcache.ReadReq_accesses::total     16666972                       # number of ReadReq accesses(hits+misses)
system.cpu.dcache.ReadReq_miss_rate::.cpu.data     0.000007                       # miss rate for ReadReq accesses
system.cpu.dcache.ReadReq_miss_rate::total     0.000007                       # miss rate for ReadReq accesses
system.cpu.dcache.ReadReq_avg_miss_latency::.cpu.data 82956.081081                       # average ReadReq miss latency
system.cpu.dcache.ReadReq_avg_miss_latency::total 82956.081081                       # average ReadReq miss latency
system.cpu.dcache.ReadReq_mshr_hits::.cpu.data           13                       # number of ReadReq MSHR hits
system.cpu.dcache.ReadReq_mshr_hits::total           13                       # number of ReadReq MSHR hits
system.cpu.dcache.ReadReq_mshr_misses::.cpu.data           98                       # number of ReadReq MSHR misses
system.cpu.dcache.ReadReq_mshr_misses::total           98                       # number of ReadReq MSHR misses
system.cpu.dcache.ReadReq_mshr_miss_latency::.cpu.data      7971875                       # number of ReadReq MSHR miss cycles
system.cpu.dcache.ReadReq_mshr_miss_latency::total      7971875                       # number of ReadReq MSHR miss cycles
system.cpu.dcache.ReadReq_mshr_miss_rate::.cpu.data     0.000006                       # mshr miss rate for ReadReq accesses
system.cpu.dcache.ReadReq_mshr_miss_rate::total     0.000006                       # mshr miss rate for ReadReq accesses
system.cpu.dcache.ReadReq_avg_mshr_miss_latency::.cpu.data 81345.663265                       # average ReadReq mshr miss latency
system.cpu.dcache.ReadReq_avg_mshr_miss_latency::total 81345.663265                       # average ReadReq mshr miss latency
system.cpu.dcache.WriteReq_hits::.cpu.data     14583637                       # number of WriteReq hits
system.cpu.dcache.WriteReq_hits::total       14583637                       # number of WriteReq hits
system.cpu.dcache.WriteReq_misses::.cpu.data      2083240                       # number of WriteReq misses
system.cpu.dcache.WriteReq_misses::total      2083240                       # number of WriteReq misses
system.cpu.dcache.WriteReq_miss_latency::.cpu.data 182461091875                       # number of WriteReq miss cycles
system.cpu.dcache.WriteReq_miss_latency::total 182461091875                       # number of WriteReq miss cycles
system.cpu.dcache.WriteReq_accesses::.cpu.data     16666877                       # number of WriteReq accesses(hits+misses)
system.cpu.dcache.WriteReq_accesses::total     16666877                       # number of WriteReq accesses(hits+misses)
system.cpu.dcache.WriteReq_miss_rate::.cpu.data     0.124993                       # miss rate for WriteReq accesses
system.cpu.dcache.WriteReq_miss_rate::total     0.124993                       # miss rate for WriteReq accesses
system.cpu.dcache.WriteReq_avg_miss_latency::.cpu.data 87585.247919                       # average WriteReq miss latency
system.cpu.dcache.WriteReq_avg_miss_latency::total 87585.247919                       # average WriteReq miss latency
system.cpu.dcache.WriteReq_mshr_hits::.cpu.data      1041610                       # number of WriteReq MSHR hits
system.cpu.dcache.WriteReq_mshr_hits::total      1041610                       # number of WriteReq MSHR hits
system.cpu.dcache.WriteReq_mshr_misses::.cpu.data      1041630                       # number of WriteReq MSHR misses
system.cpu.dcache.WriteReq_mshr_misses::total      1041630                       # number of WriteReq MSHR misses
system.cpu.dcache.WriteReq_mshr_miss_latency::.cpu.data  91231508125                       # number of WriteReq MSHR miss cycles
system.cpu.dcache.WriteReq_mshr_miss_latency::total  91231508125                       # number of WriteReq MSHR miss cycles
system.cpu.dcache.WriteReq_mshr_miss_rate::.cpu.data     0.062497                       # mshr miss rate for WriteReq accesses
system.cpu.dcache.WriteReq_mshr_miss_rate::total     0.062497                       # mshr miss rate for WriteReq accesses
system.cpu.dcache.WriteReq_avg_mshr_miss_latency::.cpu.data 87585.330804                       # average WriteReq mshr miss latency
system.cpu.dcache.WriteReq_avg_mshr_miss_latency::total 87585.330804                       # average WriteReq mshr miss latency
system.cpu.dcache.SoftPFReq_hits::.cpu.data           13                       # number of SoftPFReq hits
system.cpu.dcache.SoftPFReq_hits::total            13                       # number of SoftPFReq hits
system.cpu.dcache.SoftPFReq_misses::.cpu.data           11                       # number of SoftPFReq misses
system.cpu.dcache.SoftPFReq_misses::total           11                       # number of SoftPFReq misses
system.cpu.dcache.SoftPFReq_accesses::.cpu.data           24                       # number of SoftPFReq accesses(hits+misses)
system.cpu.dcache.SoftPFReq_accesses::total           24                       # number of SoftPFReq accesses(hits+misses)
system.cpu.dcache.SoftPFReq_miss_rate::.cpu.data     0.458333                       # miss rate for SoftPFReq accesses
system.cpu.dcache.SoftPFReq_miss_rate::total     0.458333                       # miss rate for SoftPFReq accesses
system.cpu.dcache.SoftPFReq_mshr_misses::.cpu.data            8                       # number of SoftPFReq MSHR misses
system.cpu.dcache.SoftPFReq_mshr_misses::total            8                       # number of SoftPFReq MSHR misses
system.cpu.dcache.SoftPFReq_mshr_miss_latency::.cpu.data       675000                       # number of SoftPFReq MSHR miss cycles
system.cpu.dcache.SoftPFReq_mshr_miss_latency::total       675000                       # number of SoftPFReq MSHR miss cycles
system.cpu.dcache.SoftPFReq_mshr_miss_rate::.cpu.data     0.333333                       # mshr miss rate for SoftPFReq accesses
system.cpu.dcache.SoftPFReq_mshr_miss_rate::total     0.333333                       # mshr miss rate for SoftPFReq accesses
system.cpu.dcache.SoftPFReq_avg_mshr_miss_latency::.cpu.data        84375                       # average SoftPFReq mshr miss latency
system.cpu.dcache.SoftPFReq_avg_mshr_miss_latency::total        84375                       # average SoftPFReq mshr miss latency
system.cpu.dcache.LoadLockedReq_hits::.cpu.data           32                       # number of LoadLockedReq hits
system.cpu.dcache.LoadLockedReq_hits::total           32                       # number of LoadLockedReq hits
system.cpu.dcache.LoadLockedReq_misses::.cpu.data            4                       # number of LoadLockedReq misses
system.cpu.dcache.LoadLockedReq_misses::total            4                       # number of LoadLockedReq misses
system.cpu.dcache.LoadLockedReq_miss_latency::.cpu.data       375625                       # number of LoadLockedReq miss cycles
system.cpu.dcache.LoadLockedReq_miss_latency::total       375625                       # number of LoadLockedReq miss cycles
system.cpu.dcache.LoadLockedReq_accesses::.cpu.data           36                       # number of LoadLockedReq accesses(hits+misses)
system.cpu.dcache.LoadLockedReq_accesses::total           36                       # number of LoadLockedReq accesses(hits+misses)
system.cpu.dcache.LoadLockedReq_miss_rate::.cpu.data     0.111111                       # miss rate for LoadLockedReq accesses
system.cpu.dcache.LoadLockedReq_miss_rate::total     0.111111                       # miss rate for LoadLockedReq accesses
system.cpu.dcache.LoadLockedReq_avg_miss_latency::.cpu.data 93906.250000                       # average LoadLockedReq miss latency
system.cpu.dcache.LoadLockedReq_avg_miss_latency::total 93906.250000                       # average LoadLockedReq miss latency
system.cpu.dcache.LoadLockedReq_mshr_misses::.cpu.data            4                       # number of LoadLockedReq MSHR misses
system.cpu.dcache.LoadLockedReq_mshr_misses::total            4                       # number of LoadLockedReq MSHR misses
system.cpu.dcache.LoadLockedReq_mshr_miss_latency::.cpu.data       370625                       # number of LoadLockedReq MSHR miss cycles
system.cpu.dcache.LoadLockedReq_mshr_miss_latency::total       370625                       # number of LoadLockedReq MSHR miss cycles
system.cpu.dcache.LoadLockedReq_mshr_miss_rate::.cpu.data     0.111111                       # mshr miss rate for LoadLockedReq accesses
system.cpu.dcache.LoadLockedReq_mshr_miss_rate::total     0.111111                       # mshr miss rate for LoadLockedReq accesses
system.cpu.dcache.LoadLockedReq_avg_mshr_miss_latency::.cpu.data 92656.250000                       # average LoadLockedReq mshr miss latency
system.cpu.dcache.LoadLockedReq_avg_mshr_miss_latency::total 92656.250000                       # average LoadLockedReq mshr miss latency
system.cpu.dcache.StoreCondReq_hits::.cpu.data           36                       # number of StoreCondReq hits
system.cpu.dcache.StoreCondReq_hits::total           36                       # number of StoreCondReq hits
system.cpu.dcache.StoreCondReq_accesses::.cpu.data           36                       # number of StoreCondReq accesses(hits+misses)
system.cpu.dcache.StoreCondReq_accesses::total           36                       # number of StoreCondReq accesses(hits+misses)
system.cpu.dcache.tags.pwrStateResidencyTicks::UNDEFINED 143356944375                       # Cumulative time (in ticks) in various power states
system.cpu.dcache.tags.tagsinuse           511.800154                       # Cycle average of tags in use
system.cpu.dcache.tags.total_refs            32292319                       # Total number of references to valid blocks.
system.cpu.dcache.tags.sampled_refs           1041740                       # Sample count of references to valid blocks.
system.cpu.dcache.tags.avg_refs             30.998444                       # Average number of references to valid blocks.
system.cpu.dcache.tags.warmup_cycle            187500                       # Cycle when the warmup percentage was hit.
system.cpu.dcache.tags.occ_blocks::.cpu.data   511.800154                       # Average occupied blocks per requestor
system.cpu.dcache.tags.occ_percent::.cpu.data     0.999610                       # Average percentage of cache occupancy
system.cpu.dcache.tags.occ_percent::total     0.999610                       # Average percentage of cache occupancy
system.cpu.dcache.tags.occ_task_id_blocks::1024          512                       # Occupied blocks per task id
system.cpu.dcache.tags.age_task_id_blocks_1024::0           74                       # Occupied blocks per task id
system.cpu.dcache.tags.age_task_id_blocks_1024::1          437                       # Occupied blocks per task id
system.cpu.dcache.tags.age_task_id_blocks_1024::4            1                       # Occupied blocks per task id
system.cpu.dcache.tags.occ_task_id_percent::1024            1                       # Percentage of cache occupancy per task id
system.cpu.dcache.tags.tag_accesses         134377520                       # Number of tag accesses
system.cpu.dcache.tags.data_accesses        134377520                       # Number of data accesses
system.cpu.itb.walker.pwrStateResidencyTicks::UNDEFINED 143356944375                       # Cumulative time (in ticks) in various power states
system.cpu.itb.stage2_mmu.stage2_tlb.walker.pwrStateResidencyTicks::UNDEFINED 143356944375                       # Cumulative time (in ticks) in various power states

---------- End Simulation Statistics   ----------
