
---------- Begin Simulation Statistics ----------
final_tick                                53203425625                       # Number of ticks from beginning of simulation (restored from checkpoints and never reset)
host_inst_rate                                 256304                       # Simulator instruction rate (inst/s)
host_mem_usage                                 678028                       # Number of bytes of host memory used
host_op_rate                                   279689                       # Simulator op (including micro ops) rate (op/s)
host_seconds                                   390.16                       # Real time elapsed on the host
host_tick_rate                              136362302                       # Simulator tick rate (ticks/s)
sim_freq                                 1000000000000                       # Frequency of simulated ticks
sim_insts                                   100000001                       # Number of instructions simulated
sim_ops                                     109123914                       # Number of ops (including micro ops) simulated
sim_seconds                                  0.053203                       # Number of seconds simulated
sim_ticks                                 53203425625                       # Number of ticks simulated
system.cpu.branchPred.BTBCorrect                    0                       # Number of correct BTB predictions (this stat may not work properly.
system.cpu.branchPred.BTBHitPct             94.729589                       # BTB Hit Percentage
system.cpu.branchPred.BTBHits                 9338279                       # Number of BTB hits
system.cpu.branchPred.BTBLookups              9857827                       # Number of BTB lookups
system.cpu.branchPred.RASInCorrect                414                       # Number of incorrect RAS predictions.
system.cpu.branchPred.condIncorrect            665099                       # Number of conditional branches incorrect
system.cpu.branchPred.condPredicted          18649940                       # Number of conditional branches predicted
system.cpu.branchPred.indirectHits             349227                       # Number of indirect target hits.
system.cpu.branchPred.indirectLookups          349481                       # Number of indirect predictor lookups.
system.cpu.branchPred.indirectMisses              254                       # Number of indirect misses.
system.cpu.branchPred.lookups                22996331                       # Number of BP lookups
system.cpu.branchPred.usedRAS                 1171738                       # Number of times the RAS was used to get a target.
system.cpu.branchPredindirectMispredicted         1346                       # Number of mispredicted indirect branches.
system.cpu.cc_regfile_reads                 394660951                       # number of cc regfile reads
system.cpu.cc_regfile_writes                 69200488                       # number of cc regfile writes
system.cpu.commit.amos                              0                       # Number of atomic instructions committed
system.cpu.commit.branchMispredicts            511097                       # The number of times a branch was mispredicted
system.cpu.commit.branches                   21269206                       # Number of branches committed
system.cpu.commit.bw_lim_events                831621                       # number cycles where commit BW limit reached
system.cpu.commit.commitNonSpecStalls          180205                       # The number of times commit has been forced to stall to communicate backwards
system.cpu.commit.commitSquashedInsts         3148818                       # The number of squashed insts skipped by commit
system.cpu.commit.committedInsts            100000001                       # Number of instructions committed
system.cpu.commit.committedOps              109123914                       # Number of ops (including micro ops) committed
system.cpu.commit.committed_per_cycle::samples     84453209                       # Number of insts commited each cycle
system.cpu.commit.committed_per_cycle::mean     1.292123                       # Number of insts commited each cycle
system.cpu.commit.committed_per_cycle::stdev     1.619216                       # Number of insts commited each cycle
system.cpu.commit.committed_per_cycle::underflows            0      0.00%      0.00% # Number of insts commited each cycle
system.cpu.commit.committed_per_cycle::0     33122008     39.22%     39.22% # Number of insts commited each cycle
system.cpu.commit.committed_per_cycle::1     25485492     30.18%     69.40% # Number of insts commited each cycle
system.cpu.commit.committed_per_cycle::2     12036415     14.25%     83.65% # Number of insts commited each cycle
system.cpu.commit.committed_per_cycle::3      5635514      6.67%     90.32% # Number of insts commited each cycle
system.cpu.commit.committed_per_cycle::4      3603167      4.27%     94.59% # Number of insts commited each cycle
system.cpu.commit.committed_per_cycle::5      1762122      2.09%     96.67% # Number of insts commited each cycle
system.cpu.commit.committed_per_cycle::6      1055286      1.25%     97.92% # Number of insts commited each cycle
system.cpu.commit.committed_per_cycle::7       921584      1.09%     99.02% # Number of insts commited each cycle
system.cpu.commit.committed_per_cycle::8       831621      0.98%    100.00% # Number of insts commited each cycle
system.cpu.commit.committed_per_cycle::overflows            0      0.00%    100.00% # Number of insts commited each cycle
system.cpu.commit.committed_per_cycle::min_value            0                       # Number of insts commited each cycle
system.cpu.commit.committed_per_cycle::max_value            8                       # Number of insts commited each cycle
system.cpu.commit.committed_per_cycle::total     84453209                       # Number of insts commited each cycle
system.cpu.commit.fp_insts                          0                       # Number of committed floating point instructions.
system.cpu.commit.function_calls              1101808                       # Number of function calls committed.
system.cpu.commit.int_insts                  87226989                       # Number of committed integer instructions.
system.cpu.commit.loads                      21632611                       # Number of loads committed
system.cpu.commit.membars                       90058                       # Number of memory barriers committed
system.cpu.commit.op_class_0::No_OpClass            0      0.00%      0.00% # Class of committed instruction
system.cpu.commit.op_class_0::IntAlu         71426305     65.45%     65.45% # Class of committed instruction
system.cpu.commit.op_class_0::IntMult          424190      0.39%     65.84% # Class of committed instruction
system.cpu.commit.op_class_0::IntDiv                0      0.00%     65.84% # Class of committed instruction
system.cpu.commit.op_class_0::FloatAdd              0      0.00%     65.84% # Class of committed instruction
system.cpu.commit.op_class_0::FloatCmp              0      0.00%     65.84% # Class of committed instruction
system.cpu.commit.op_class_0::FloatCvt              0      0.00%     65.84% # Class of committed instruction
system.cpu.commit.op_class_0::FloatMult             0      0.00%     65.84% # Class of committed instruction
system.cpu.commit.op_class_0::FloatMultAcc            0      0.00%     65.84% # Class of committed instruction
system.cpu.commit.op_class_0::FloatDiv              0      0.00%     65.84% # Class of committed instruction
system.cpu.commit.op_class_0::FloatMisc             0      0.00%     65.84% # Class of committed instruction
system.cpu.commit.op_class_0::FloatSqrt             0      0.00%     65.84% # Class of committed instruction
system.cpu.commit.op_class_0::SimdAdd               0      0.00%     65.84% # Class of committed instruction
system.cpu.commit.op_class_0::SimdAddAcc            0      0.00%     65.84% # Class of committed instruction
system.cpu.commit.op_class_0::SimdAlu               0      0.00%     65.84% # Class of committed instruction
system.cpu.commit.op_class_0::SimdCmp               0      0.00%     65.84% # Class of committed instruction
system.cpu.commit.op_class_0::SimdCvt               0      0.00%     65.84% # Class of committed instruction
system.cpu.commit.op_class_0::SimdMisc              0      0.00%     65.84% # Class of committed instruction
system.cpu.commit.op_class_0::SimdMult              0      0.00%     65.84% # Class of committed instruction
system.cpu.commit.op_class_0::SimdMultAcc            0      0.00%     65.84% # Class of committed instruction
system.cpu.commit.op_class_0::SimdShift             0      0.00%     65.84% # Class of committed instruction
system.cpu.commit.op_class_0::SimdShiftAcc            0      0.00%     65.84% # Class of committed instruction
system.cpu.commit.op_class_0::SimdDiv               0      0.00%     65.84% # Class of committed instruction
system.cpu.commit.op_class_0::SimdSqrt              0      0.00%     65.84% # Class of committed instruction
system.cpu.commit.op_class_0::SimdFloatAdd            0      0.00%     65.84% # Class of committed instruction
system.cpu.commit.op_class_0::SimdFloatAlu            0      0.00%     65.84% # Class of committed instruction
system.cpu.commit.op_class_0::SimdFloatCmp            0      0.00%     65.84% # Class of committed instruction
system.cpu.commit.op_class_0::SimdFloatCvt            0      0.00%     65.84% # Class of committed instruction
system.cpu.commit.op_class_0::SimdFloatDiv            0      0.00%     65.84% # Class of committed instruction
system.cpu.commit.op_class_0::SimdFloatMisc            0      0.00%     65.84% # Class of committed instruction
system.cpu.commit.op_class_0::SimdFloatMult            0      0.00%     65.84% # Class of committed instruction
system.cpu.commit.op_class_0::SimdFloatMultAcc            0      0.00%     65.84% # Class of committed instruction
system.cpu.commit.op_class_0::SimdFloatSqrt            0      0.00%     65.84% # Class of committed instruction
system.cpu.commit.op_class_0::SimdReduceAdd            0      0.00%     65.84% # Class of committed instruction
system.cpu.commit.op_class_0::SimdReduceAlu            0      0.00%     65.84% # Class of committed instruction
system.cpu.commit.op_class_0::SimdReduceCmp            0      0.00%     65.84% # Class of committed instruction
system.cpu.commit.op_class_0::SimdFloatReduceAdd            0      0.00%     65.84% # Class of committed instruction
system.cpu.commit.op_class_0::SimdFloatReduceCmp            0      0.00%     65.84% # Class of committed instruction
system.cpu.commit.op_class_0::SimdAes               0      0.00%     65.84% # Class of committed instruction
system.cpu.commit.op_class_0::SimdAesMix            0      0.00%     65.84% # Class of committed instruction
system.cpu.commit.op_class_0::SimdSha1Hash            0      0.00%     65.84% # Class of committed instruction
system.cpu.commit.op_class_0::SimdSha1Hash2            0      0.00%     65.84% # Class of committed instruction
system.cpu.commit.op_class_0::SimdSha256Hash            0      0.00%     65.84% # Class of committed instruction
system.cpu.commit.op_class_0::SimdSha256Hash2            0      0.00%     65.84% # Class of committed instruction
system.cpu.commit.op_class_0::SimdShaSigma2            0      0.00%     65.84% # Class of committed instruction
system.cpu.commit.op_class_0::SimdShaSigma3            0      0.00%     65.84% # Class of committed instruction
system.cpu.commit.op_class_0::SimdPredAlu            0      0.00%     65.84% # Class of committed instruction
system.cpu.commit.op_class_0::MemRead        21632611     19.82%     85.67% # Class of committed instruction
system.cpu.commit.op_class_0::MemWrite       15640808     14.33%    100.00% # Class of committed instruction
system.cpu.commit.op_class_0::FloatMemRead            0      0.00%    100.00% # Class of committed instruction
system.cpu.commit.op_class_0::FloatMemWrite            0      0.00%    100.00% # Class of committed instruction
system.cpu.commit.op_class_0::IprAccess             0      0.00%    100.00% # Class of committed instruction
system.cpu.commit.op_class_0::InstPrefetch            0      0.00%    100.00% # Class of committed instruction
system.cpu.commit.op_class_0::total         109123914                       # Class of committed instruction
system.cpu.commit.refs                       37273419                       # Number of memory references committed
system.cpu.commit.swp_count                         0                       # Number of s/w prefetches committed
system.cpu.commit.vec_insts                         0                       # Number of committed Vector instructions.
system.cpu.committedInsts                   100000001                       # Number of Instructions Simulated
system.cpu.committedOps                     109123914                       # Number of Ops (including micro ops) Simulated
system.cpu.cpi                               0.851255                       # CPI: Cycles Per Instruction
system.cpu.cpi_total                         0.851255                       # CPI: Total CPI of All Threads
system.cpu.decode.BlockedCycles               7309324                       # Number of cycles decode is blocked
system.cpu.decode.BranchMispred                154041                       # Number of times decode detected a branch misprediction
system.cpu.decode.BranchResolved              9328245                       # Number of times decode resolved a branch
system.cpu.decode.DecodedInsts              115305668                       # Number of instructions handled by decode
system.cpu.decode.IdleCycles                 28557033                       # Number of cycles decode is idle
system.cpu.decode.RunCycles                  48209299                       # Number of cycles decode is running
system.cpu.decode.SquashCycles                 511673                       # Number of cycles decode is squashing
system.cpu.decode.SquashedInsts               2343892                       # Number of squashed instructions handled by decode
system.cpu.decode.UnblockCycles                506933                       # Number of cycles decode is unblocking
system.cpu.dtb.accesses                             0                       # DTB accesses
system.cpu.dtb.align_faults                         0                       # Number of TLB faults due to alignment restrictions
system.cpu.dtb.domain_faults                        0                       # Number of TLB faults due to domain restrictions
system.cpu.dtb.flush_entries                        0                       # Number of entries that have been flushed from TLB
system.cpu.dtb.flush_tlb                            0                       # Number of times complete TLB was flushed
system.cpu.dtb.flush_tlb_asid                       0                       # Number of times TLB was flushed by ASID
system.cpu.dtb.flush_tlb_mva                        0                       # Number of times TLB was flushed by MVA
system.cpu.dtb.flush_tlb_mva_asid                   0                       # Number of times TLB was flushed by MVA & ASID
system.cpu.dtb.hits                                 0                       # DTB hits
system.cpu.dtb.inst_accesses                        0                       # ITB inst accesses
system.cpu.dtb.inst_hits                            0                       # ITB inst hits
system.cpu.dtb.inst_misses                          0                       # ITB inst misses
system.cpu.dtb.misses                               0                       # DTB misses
system.cpu.dtb.perms_faults                         0                       # Number of TLB faults due to permissions restrictions
system.cpu.dtb.prefetch_faults                      0                       # Number of TLB faults due to prefetch
system.cpu.dtb.read_accesses                        0                       # DTB read accesses
system.cpu.dtb.read_hits                            0                       # DTB read hits
system.cpu.dtb.read_misses                          0                       # DTB read misses
system.cpu.dtb.stage2_mmu.stage2_tlb.accesses            0                       # DTB accesses
system.cpu.dtb.stage2_mmu.stage2_tlb.align_faults            0                       # Number of TLB faults due to alignment restrictions
system.cpu.dtb.stage2_mmu.stage2_tlb.domain_faults            0                       # Number of TLB faults due to domain restrictions
system.cpu.dtb.stage2_mmu.stage2_tlb.flush_entries            0                       # Number of entries that have been flushed from TLB
system.cpu.dtb.stage2_mmu.stage2_tlb.flush_tlb            0                       # Number of times complete TLB was flushed
system.cpu.dtb.stage2_mmu.stage2_tlb.flush_tlb_asid            0                       # Number of times TLB was flushed by ASID
system.cpu.dtb.stage2_mmu.stage2_tlb.flush_tlb_mva            0                       # Number of times TLB was flushed by MVA
system.cpu.dtb.stage2_mmu.stage2_tlb.flush_tlb_mva_asid            0                       # Number of times TLB was flushed by MVA & ASID
system.cpu.dtb.stage2_mmu.stage2_tlb.hits            0                       # DTB hits
system.cpu.dtb.stage2_mmu.stage2_tlb.inst_accesses            0                       # ITB inst accesses
system.cpu.dtb.stage2_mmu.stage2_tlb.inst_hits            0                       # ITB inst hits
system.cpu.dtb.stage2_mmu.stage2_tlb.inst_misses            0                       # ITB inst misses
system.cpu.dtb.stage2_mmu.stage2_tlb.misses            0                       # DTB misses
system.cpu.dtb.stage2_mmu.stage2_tlb.perms_faults            0                       # Number of TLB faults due to permissions restrictions
system.cpu.dtb.stage2_mmu.stage2_tlb.prefetch_faults            0                       # Number of TLB faults due to prefetch
system.cpu.dtb.stage2_mmu.stage2_tlb.read_accesses            0                       # DTB read accesses
system.cpu.dtb.stage2_mmu.stage2_tlb.read_hits            0                       # DTB read hits
system.cpu.dtb.stage2_mmu.stage2_tlb.read_misses            0                       # DTB read misses
system.cpu.dtb.stage2_mmu.stage2_tlb.walker.walkRequestOrigin_Requested::Data            0                       # Table walker requests started/completed, data/inst
system.cpu.dtb.stage2_mmu.stage2_tlb.walker.walkRequestOrigin_Requested::Inst            0                       # Table walker requests started/completed, data/inst
system.cpu.dtb.stage2_mmu.stage2_tlb.walker.walkRequestOrigin_Requested::total            0                       # Table walker requests started/completed, data/inst
system.cpu.dtb.stage2_mmu.stage2_tlb.walker.walkRequestOrigin_Completed::Data            0                       # Table walker requests started/completed, data/inst
system.cpu.dtb.stage2_mmu.stage2_tlb.walker.walkRequestOrigin_Completed::Inst            0                       # Table walker requests started/completed, data/inst
system.cpu.dtb.stage2_mmu.stage2_tlb.walker.walkRequestOrigin_Completed::total            0                       # Table walker requests started/completed, data/inst
system.cpu.dtb.stage2_mmu.stage2_tlb.walker.walkRequestOrigin::total            0                       # Table walker requests started/completed, data/inst
system.cpu.dtb.stage2_mmu.stage2_tlb.walker.walks            0                       # Table walker walks requested
system.cpu.dtb.stage2_mmu.stage2_tlb.write_accesses            0                       # DTB write accesses
system.cpu.dtb.stage2_mmu.stage2_tlb.write_hits            0                       # DTB write hits
system.cpu.dtb.stage2_mmu.stage2_tlb.write_misses            0                       # DTB write misses
system.cpu.dtb.walker.walkRequestOrigin_Requested::Data            0                       # Table walker requests started/completed, data/inst
system.cpu.dtb.walker.walkRequestOrigin_Requested::Inst            0                       # Table walker requests started/completed, data/inst
system.cpu.dtb.walker.walkRequestOrigin_Requested::total            0                       # Table walker requests started/completed, data/inst
system.cpu.dtb.walker.walkRequestOrigin_Completed::Data            0                       # Table walker requests started/completed, data/inst
system.cpu.dtb.walker.walkRequestOrigin_Completed::Inst            0                       # Table walker requests started/completed, data/inst
system.cpu.dtb.walker.walkRequestOrigin_Completed::total            0                       # Table walker requests started/completed, data/inst
system.cpu.dtb.walker.walkRequestOrigin::total            0                       # Table walker requests started/completed, data/inst
system.cpu.dtb.walker.walks                         0                       # Table walker walks requested
system.cpu.dtb.write_accesses                       0                       # DTB write accesses
system.cpu.dtb.write_hits                           0                       # DTB write hits
system.cpu.dtb.write_misses                         0                       # DTB write misses
system.cpu.fetch.Branches                    22996331                       # Number of branches that fetch encountered
system.cpu.fetch.CacheLines                  27481692                       # Number of cache lines fetched
system.cpu.fetch.Cycles                      56441551                       # Number of cycles fetch has run and was not squashing or blocked
system.cpu.fetch.IcacheSquashes                109337                       # Number of outstanding Icache misses that were squashed
system.cpu.fetch.Insts                      109201100                       # Number of instructions fetch has processed
system.cpu.fetch.MiscStallCycles                    5                       # Number of cycles fetch has spent waiting on interrupts, or bad addresses, or out of MSHRs
system.cpu.fetch.PendingTrapStallCycles           229                       # Number of stall cycles due to pending traps
system.cpu.fetch.SquashCycles                 1331358                       # Number of cycles fetch has spent squashing
system.cpu.fetch.branchRate                  0.270146                       # Number of branch fetches per cycle
system.cpu.fetch.icacheStallCycles           27986798                       # Number of cycles fetch is stalled on an Icache miss
system.cpu.fetch.predictedBranches           10859244                       # Number of branches that fetch has predicted taken
system.cpu.fetch.rate                        1.282825                       # Number of inst fetches per cycle
system.cpu.fetch.rateDist::samples           85094262                       # Number of instructions fetched each cycle (Total)
system.cpu.fetch.rateDist::mean              1.397291                       # Number of instructions fetched each cycle (Total)
system.cpu.fetch.rateDist::stdev             1.326574                       # Number of instructions fetched each cycle (Total)
system.cpu.fetch.rateDist::underflows               0      0.00%      0.00% # Number of instructions fetched each cycle (Total)
system.cpu.fetch.rateDist::0                 35541734     41.77%     41.77% # Number of instructions fetched each cycle (Total)
system.cpu.fetch.rateDist::1                  9348327     10.99%     52.75% # Number of instructions fetched each cycle (Total)
system.cpu.fetch.rateDist::2                 11059494     13.00%     65.75% # Number of instructions fetched each cycle (Total)
system.cpu.fetch.rateDist::3                 29144707     34.25%    100.00% # Number of instructions fetched each cycle (Total)
system.cpu.fetch.rateDist::overflows                0      0.00%    100.00% # Number of instructions fetched each cycle (Total)
system.cpu.fetch.rateDist::min_value                0                       # Number of instructions fetched each cycle (Total)
system.cpu.fetch.rateDist::max_value                3                       # Number of instructions fetched each cycle (Total)
system.cpu.fetch.rateDist::total             85094262                       # Number of instructions fetched each cycle (Total)
system.cpu.idleCycles                           31220                       # Total number of cycles that the CPU has spent unscheduled due to idling
system.cpu.iew.branchMispredicts               513939                       # Number of branch mispredicts detected at execute
system.cpu.iew.exec_branches                 21481997                       # Number of branches executed
system.cpu.iew.exec_nop                            22                       # number of nop insts executed
system.cpu.iew.exec_rate                     1.300760                       # Inst execution rate
system.cpu.iew.exec_refs                     37788792                       # number of memory reference insts executed
system.cpu.iew.exec_stores                   15744603                       # Number of stores executed
system.cpu.iew.exec_swp                             0                       # number of swp insts executed
system.cpu.iew.iewBlockCycles                  129560                       # Number of cycles IEW is blocking
system.cpu.iew.iewDispLoadInsts              22582142                       # Number of dispatched load instructions
system.cpu.iew.iewDispNonSpecInsts              90160                       # Number of dispatched non-speculative instructions
system.cpu.iew.iewDispSquashedInsts                 0                       # Number of squashed instructions skipped by dispatch
system.cpu.iew.iewDispStoreInsts             15888815                       # Number of dispatched store instructions
system.cpu.iew.iewDispatchedInsts           113008560                       # Number of instructions dispatched to IQ
system.cpu.iew.iewExecLoadInsts              22044189                       # Number of load instructions executed
system.cpu.iew.iewExecSquashedInsts            727209                       # Number of squashed instructions skipped in execute
system.cpu.iew.iewExecutedInsts             110727828                       # Number of executed instructions
system.cpu.iew.iewIQFullEvents                      1                       # Number of times the IQ has become full, causing a stall
system.cpu.iew.iewIdleCycles                        0                       # Number of cycles IEW is idle
system.cpu.iew.iewLSQFullEvents                 96891                       # Number of times the LSQ has become full, causing a stall
system.cpu.iew.iewSquashCycles                 511673                       # Number of cycles IEW is squashing
system.cpu.iew.iewUnblockCycles                 96893                       # Number of cycles IEW is unblocking
system.cpu.iew.lsq.thread0.blockedLoads             0                       # Number of blocked loads due to partial load-store forwarding
system.cpu.iew.lsq.thread0.cacheBlocked             1                       # Number of times an access to memory failed due to the cache being blocked
system.cpu.iew.lsq.thread0.forwLoads           845546                       # Number of loads that had data forwarded from stores
system.cpu.iew.lsq.thread0.ignoredResponses            0                       # Number of memory responses ignored because the instruction is squashed
system.cpu.iew.lsq.thread0.invAddrLoads             0                       # Number of loads ignored due to an invalid address
system.cpu.iew.lsq.thread0.invAddrSwpfs             0                       # Number of software prefetches ignored due to an invalid address
system.cpu.iew.lsq.thread0.memOrderViolation          494                       # Number of memory ordering violations
system.cpu.iew.lsq.thread0.rescheduledLoads          898                       # Number of loads that were rescheduled
system.cpu.iew.lsq.thread0.squashedLoads       949531                       # Number of loads squashed
system.cpu.iew.lsq.thread0.squashedStores       248006                       # Number of stores squashed
system.cpu.iew.memOrderViolationEvents            494                       # Number of memory order violations
system.cpu.iew.predictedNotTakenIncorrect       336117                       # Number of branches that were predicted not taken incorrectly
system.cpu.iew.predictedTakenIncorrect         177822                       # Number of branches that were predicted taken incorrectly
system.cpu.iew.wb_consumers                  76777247                       # num instructions consuming a value
system.cpu.iew.wb_count                     110413814                       # cumulative count of insts written-back
system.cpu.iew.wb_fanout                     0.671739                       # average fanout of values written-back
system.cpu.iew.wb_producers                  51574303                       # num instructions producing a value
system.cpu.iew.wb_rate                       1.297071                       # insts written-back per cycle
system.cpu.iew.wb_sent                      110503955                       # cumulative count of insts sent to commit
system.cpu.int_regfile_reads                109756917                       # number of integer regfile reads
system.cpu.int_regfile_writes                55443545                       # number of integer regfile writes
system.cpu.ipc                               1.174736                       # IPC: Instructions Per Cycle
system.cpu.ipc_total                         1.174736                       # IPC: Total IPC of All Threads
system.cpu.iq.FU_type_0::No_OpClass                 4      0.00%      0.00% # Type of FU issued
system.cpu.iq.FU_type_0::IntAlu              72776009     65.30%     65.30% # Type of FU issued
system.cpu.iq.FU_type_0::IntMult               424191      0.38%     65.68% # Type of FU issued
system.cpu.iq.FU_type_0::IntDiv                     0      0.00%     65.68% # Type of FU issued
system.cpu.iq.FU_type_0::FloatAdd                   0      0.00%     65.68% # Type of FU issued
system.cpu.iq.FU_type_0::FloatCmp                   0      0.00%     65.68% # Type of FU issued
system.cpu.iq.FU_type_0::FloatCvt                   0      0.00%     65.68% # Type of FU issued
system.cpu.iq.FU_type_0::FloatMult                  0      0.00%     65.68% # Type of FU issued
system.cpu.iq.FU_type_0::FloatMultAcc               0      0.00%     65.68% # Type of FU issued
system.cpu.iq.FU_type_0::FloatDiv                   0      0.00%     65.68% # Type of FU issued
system.cpu.iq.FU_type_0::FloatMisc                  0      0.00%     65.68% # Type of FU issued
system.cpu.iq.FU_type_0::FloatSqrt                  0      0.00%     65.68% # Type of FU issued
system.cpu.iq.FU_type_0::SimdAdd                   27      0.00%     65.68% # Type of FU issued
system.cpu.iq.FU_type_0::SimdAddAcc                 1      0.00%     65.68% # Type of FU issued
system.cpu.iq.FU_type_0::SimdAlu                    0      0.00%     65.68% # Type of FU issued
system.cpu.iq.FU_type_0::SimdCmp                    0      0.00%     65.68% # Type of FU issued
system.cpu.iq.FU_type_0::SimdCvt                    0      0.00%     65.68% # Type of FU issued
system.cpu.iq.FU_type_0::SimdMisc                   0      0.00%     65.68% # Type of FU issued
system.cpu.iq.FU_type_0::SimdMult                   0      0.00%     65.68% # Type of FU issued
system.cpu.iq.FU_type_0::SimdMultAcc                0      0.00%     65.68% # Type of FU issued
system.cpu.iq.FU_type_0::SimdShift                 26      0.00%     65.68% # Type of FU issued
system.cpu.iq.FU_type_0::SimdShiftAcc               0      0.00%     65.68% # Type of FU issued
system.cpu.iq.FU_type_0::SimdDiv                    0      0.00%     65.68% # Type of FU issued
system.cpu.iq.FU_type_0::SimdSqrt                   0      0.00%     65.68% # Type of FU issued
system.cpu.iq.FU_type_0::SimdFloatAdd               0      0.00%     65.68% # Type of FU issued
system.cpu.iq.FU_type_0::SimdFloatAlu               0      0.00%     65.68% # Type of FU issued
system.cpu.iq.FU_type_0::SimdFloatCmp               0      0.00%     65.68% # Type of FU issued
system.cpu.iq.FU_type_0::SimdFloatCvt               0      0.00%     65.68% # Type of FU issued
system.cpu.iq.FU_type_0::SimdFloatDiv               0      0.00%     65.68% # Type of FU issued
system.cpu.iq.FU_type_0::SimdFloatMisc              0      0.00%     65.68% # Type of FU issued
system.cpu.iq.FU_type_0::SimdFloatMult              0      0.00%     65.68% # Type of FU issued
system.cpu.iq.FU_type_0::SimdFloatMultAcc            0      0.00%     65.68% # Type of FU issued
system.cpu.iq.FU_type_0::SimdFloatSqrt              0      0.00%     65.68% # Type of FU issued
system.cpu.iq.FU_type_0::SimdReduceAdd              0      0.00%     65.68% # Type of FU issued
system.cpu.iq.FU_type_0::SimdReduceAlu              0      0.00%     65.68% # Type of FU issued
system.cpu.iq.FU_type_0::SimdReduceCmp              0      0.00%     65.68% # Type of FU issued
system.cpu.iq.FU_type_0::SimdFloatReduceAdd            0      0.00%     65.68% # Type of FU issued
system.cpu.iq.FU_type_0::SimdFloatReduceCmp            0      0.00%     65.68% # Type of FU issued
system.cpu.iq.FU_type_0::SimdAes                    0      0.00%     65.68% # Type of FU issued
system.cpu.iq.FU_type_0::SimdAesMix                 0      0.00%     65.68% # Type of FU issued
system.cpu.iq.FU_type_0::SimdSha1Hash               0      0.00%     65.68% # Type of FU issued
system.cpu.iq.FU_type_0::SimdSha1Hash2              0      0.00%     65.68% # Type of FU issued
system.cpu.iq.FU_type_0::SimdSha256Hash             0      0.00%     65.68% # Type of FU issued
system.cpu.iq.FU_type_0::SimdSha256Hash2            0      0.00%     65.68% # Type of FU issued
system.cpu.iq.FU_type_0::SimdShaSigma2              0      0.00%     65.68% # Type of FU issued
system.cpu.iq.FU_type_0::SimdShaSigma3              0      0.00%     65.68% # Type of FU issued
system.cpu.iq.FU_type_0::SimdPredAlu                0      0.00%     65.68% # Type of FU issued
system.cpu.iq.FU_type_0::MemRead             22494900     20.18%     85.86% # Type of FU issued
system.cpu.iq.FU_type_0::MemWrite            15759881     14.14%    100.00% # Type of FU issued
system.cpu.iq.FU_type_0::FloatMemRead               0      0.00%    100.00% # Type of FU issued
system.cpu.iq.FU_type_0::FloatMemWrite              0      0.00%    100.00% # Type of FU issued
system.cpu.iq.FU_type_0::IprAccess                  0      0.00%    100.00% # Type of FU issued
system.cpu.iq.FU_type_0::InstPrefetch               0      0.00%    100.00% # Type of FU issued
system.cpu.iq.FU_type_0::total              111455039                       # Type of FU issued
system.cpu.iq.fp_alu_accesses                       0                       # Number of floating point alu accesses
system.cpu.iq.fp_inst_queue_reads                   0                       # Number of floating instruction queue reads
system.cpu.iq.fp_inst_queue_wakeup_accesses            0                       # Number of floating instruction queue wakeup accesses
system.cpu.iq.fp_inst_queue_writes                  0                       # Number of floating instruction queue writes
system.cpu.iq.fu_busy_cnt                    21455389                       # FU busy when requested
system.cpu.iq.fu_busy_rate                   0.192503                       # FU busy rate (busy events/executed inst)
system.cpu.iq.fu_full::No_OpClass                   0      0.00%      0.00% # attempts to use FU when none available
system.cpu.iq.fu_full::IntAlu                 9906705     46.17%     46.17% # attempts to use FU when none available
system.cpu.iq.fu_full::IntMult                      0      0.00%     46.17% # attempts to use FU when none available
system.cpu.iq.fu_full::IntDiv                       0      0.00%     46.17% # attempts to use FU when none available
system.cpu.iq.fu_full::FloatAdd                     0      0.00%     46.17% # attempts to use FU when none available
system.cpu.iq.fu_full::FloatCmp                     0      0.00%     46.17% # attempts to use FU when none available
system.cpu.iq.fu_full::FloatCvt                     0      0.00%     46.17% # attempts to use FU when none available
system.cpu.iq.fu_full::FloatMult                    0      0.00%     46.17% # attempts to use FU when none available
system.cpu.iq.fu_full::FloatMultAcc                 0      0.00%     46.17% # attempts to use FU when none available
system.cpu.iq.fu_full::FloatDiv                     0      0.00%     46.17% # attempts to use FU when none available
system.cpu.iq.fu_full::FloatMisc                    0      0.00%     46.17% # attempts to use FU when none available
system.cpu.iq.fu_full::FloatSqrt                    0      0.00%     46.17% # attempts to use FU when none available
system.cpu.iq.fu_full::SimdAdd                      0      0.00%     46.17% # attempts to use FU when none available
system.cpu.iq.fu_full::SimdAddAcc                   0      0.00%     46.17% # attempts to use FU when none available
system.cpu.iq.fu_full::SimdAlu                      0      0.00%     46.17% # attempts to use FU when none available
system.cpu.iq.fu_full::SimdCmp                      0      0.00%     46.17% # attempts to use FU when none available
system.cpu.iq.fu_full::SimdCvt                      0      0.00%     46.17% # attempts to use FU when none available
system.cpu.iq.fu_full::SimdMisc                     0      0.00%     46.17% # attempts to use FU when none available
system.cpu.iq.fu_full::SimdMult                     0      0.00%     46.17% # attempts to use FU when none available
system.cpu.iq.fu_full::SimdMultAcc                  0      0.00%     46.17% # attempts to use FU when none available
system.cpu.iq.fu_full::SimdShift                    0      0.00%     46.17% # attempts to use FU when none available
system.cpu.iq.fu_full::SimdShiftAcc                 0      0.00%     46.17% # attempts to use FU when none available
system.cpu.iq.fu_full::SimdDiv                      0      0.00%     46.17% # attempts to use FU when none available
system.cpu.iq.fu_full::SimdSqrt                     0      0.00%     46.17% # attempts to use FU when none available
system.cpu.iq.fu_full::SimdFloatAdd                 0      0.00%     46.17% # attempts to use FU when none available
system.cpu.iq.fu_full::SimdFloatAlu                 0      0.00%     46.17% # attempts to use FU when none available
system.cpu.iq.fu_full::SimdFloatCmp                 0      0.00%     46.17% # attempts to use FU when none available
system.cpu.iq.fu_full::SimdFloatCvt                 0      0.00%     46.17% # attempts to use FU when none available
system.cpu.iq.fu_full::SimdFloatDiv                 0      0.00%     46.17% # attempts to use FU when none available
system.cpu.iq.fu_full::SimdFloatMisc                0      0.00%     46.17% # attempts to use FU when none available
system.cpu.iq.fu_full::SimdFloatMult                0      0.00%     46.17% # attempts to use FU when none available
system.cpu.iq.fu_full::SimdFloatMultAcc             0      0.00%     46.17% # attempts to use FU when none available
system.cpu.iq.fu_full::SimdFloatSqrt                0      0.00%     46.17% # attempts to use FU when none available
system.cpu.iq.fu_full::SimdReduceAdd                0      0.00%     46.17% # attempts to use FU when none available
system.cpu.iq.fu_full::SimdReduceAlu                0      0.00%     46.17% # attempts to use FU when none available
system.cpu.iq.fu_full::SimdReduceCmp                0      0.00%     46.17% # attempts to use FU when none available
system.cpu.iq.fu_full::SimdFloatReduceAdd            0      0.00%     46.17% # attempts to use FU when none available
system.cpu.iq.fu_full::SimdFloatReduceCmp            0      0.00%     46.17% # attempts to use FU when none available
system.cpu.iq.fu_full::SimdAes                      0      0.00%     46.17% # attempts to use FU when none available
system.cpu.iq.fu_full::SimdAesMix                   0      0.00%     46.17% # attempts to use FU when none available
system.cpu.iq.fu_full::SimdSha1Hash                 0      0.00%     46.17% # attempts to use FU when none available
system.cpu.iq.fu_full::SimdSha1Hash2                0      0.00%     46.17% # attempts to use FU when none available
system.cpu.iq.fu_full::SimdSha256Hash               0      0.00%     46.17% # attempts to use FU when none available
system.cpu.iq.fu_full::SimdSha256Hash2              0      0.00%     46.17% # attempts to use FU when none available
system.cpu.iq.fu_full::SimdShaSigma2                0      0.00%     46.17% # attempts to use FU when none available
system.cpu.iq.fu_full::SimdShaSigma3                0      0.00%     46.17% # attempts to use FU when none available
system.cpu.iq.fu_full::SimdPredAlu                  0      0.00%     46.17% # attempts to use FU when none available
system.cpu.iq.fu_full::MemRead                5333410     24.86%     71.03% # attempts to use FU when none available
system.cpu.iq.fu_full::MemWrite               6215274     28.97%    100.00% # attempts to use FU when none available
system.cpu.iq.fu_full::FloatMemRead                 0      0.00%    100.00% # attempts to use FU when none available
system.cpu.iq.fu_full::FloatMemWrite                0      0.00%    100.00% # attempts to use FU when none available
system.cpu.iq.fu_full::IprAccess                    0      0.00%    100.00% # attempts to use FU when none available
system.cpu.iq.fu_full::InstPrefetch                 0      0.00%    100.00% # attempts to use FU when none available
system.cpu.iq.int_alu_accesses              132910424                       # Number of integer alu accesses
system.cpu.iq.int_inst_queue_reads          329625561                       # Number of integer instruction queue reads
system.cpu.iq.int_inst_queue_wakeup_accesses    110413814                       # Number of integer instruction queue wakeup accesses
system.cpu.iq.int_inst_queue_writes         116893643                       # Number of integer instruction queue writes
system.cpu.iq.iqInstsAdded                  112828314                       # Number of instructions added to the IQ (excludes non-spec)
system.cpu.iq.iqInstsIssued                 111455039                       # Number of instructions issued
system.cpu.iq.iqNonSpecInstsAdded              180224                       # Number of non-speculative instructions added to the IQ
system.cpu.iq.iqSquashedInstsExamined         3884619                       # Number of squashed instructions iterated over during squash; mainly for profiling
system.cpu.iq.iqSquashedInstsIssued            165834                       # Number of squashed instructions issued
system.cpu.iq.iqSquashedNonSpecRemoved             19                       # Number of squashed non-spec instructions that were removed
system.cpu.iq.iqSquashedOperandsExamined     10209841                       # Number of squashed operands that are examined and possibly removed from graph
system.cpu.iq.issued_per_cycle::samples      85094262                       # Number of insts issued each cycle
system.cpu.iq.issued_per_cycle::mean         1.309783                       # Number of insts issued each cycle
system.cpu.iq.issued_per_cycle::stdev        1.022520                       # Number of insts issued each cycle
system.cpu.iq.issued_per_cycle::underflows            0      0.00%      0.00% # Number of insts issued each cycle
system.cpu.iq.issued_per_cycle::0            22375413     26.29%     26.29% # Number of insts issued each cycle
system.cpu.iq.issued_per_cycle::1            26036088     30.60%     56.89% # Number of insts issued each cycle
system.cpu.iq.issued_per_cycle::2            25588213     30.07%     86.96% # Number of insts issued each cycle
system.cpu.iq.issued_per_cycle::3            10135667     11.91%     98.87% # Number of insts issued each cycle
system.cpu.iq.issued_per_cycle::4              958881      1.13%    100.00% # Number of insts issued each cycle
system.cpu.iq.issued_per_cycle::5                   0      0.00%    100.00% # Number of insts issued each cycle
system.cpu.iq.issued_per_cycle::6                   0      0.00%    100.00% # Number of insts issued each cycle
system.cpu.iq.issued_per_cycle::7                   0      0.00%    100.00% # Number of insts issued each cycle
system.cpu.iq.issued_per_cycle::8                   0      0.00%    100.00% # Number of insts issued each cycle
system.cpu.iq.issued_per_cycle::overflows            0      0.00%    100.00% # Number of insts issued each cycle
system.cpu.iq.issued_per_cycle::min_value            0                       # Number of insts issued each cycle
system.cpu.iq.issued_per_cycle::max_value            4                       # Number of insts issued each cycle
system.cpu.iq.issued_per_cycle::total        85094262                       # Number of insts issued each cycle
system.cpu.iq.rate                           1.309303                       # Inst issue rate
system.cpu.iq.vec_alu_accesses                      0                       # Number of vector alu accesses
system.cpu.iq.vec_inst_queue_reads                  0                       # Number of vector instruction queue reads
system.cpu.iq.vec_inst_queue_wakeup_accesses            0                       # Number of vector instruction queue wakeup accesses
system.cpu.iq.vec_inst_queue_writes                 0                       # Number of vector instruction queue writes
system.cpu.itb.accesses                             0                       # DTB accesses
system.cpu.itb.align_faults                         0                       # Number of TLB faults due to alignment restrictions
system.cpu.itb.domain_faults                        0                       # Number of TLB faults due to domain restrictions
system.cpu.itb.flush_entries                        0                       # Number of entries that have been flushed from TLB
system.cpu.itb.flush_tlb                            0                       # Number of times complete TLB was flushed
system.cpu.itb.flush_tlb_asid                       0                       # Number of times TLB was flushed by ASID
system.cpu.itb.flush_tlb_mva                        0                       # Number of times TLB was flushed by MVA
system.cpu.itb.flush_tlb_mva_asid                   0                       # Number of times TLB was flushed by MVA & ASID
system.cpu.itb.hits                                 0                       # DTB hits
system.cpu.itb.inst_accesses                        0                       # ITB inst accesses
system.cpu.itb.inst_hits                            0                       # ITB inst hits
system.cpu.itb.inst_misses                          0                       # ITB inst misses
system.cpu.itb.misses                               0                       # DTB misses
system.cpu.itb.perms_faults                         0                       # Number of TLB faults due to permissions restrictions
system.cpu.itb.prefetch_faults                      0                       # Number of TLB faults due to prefetch
system.cpu.itb.read_accesses                        0                       # DTB read accesses
system.cpu.itb.read_hits                            0                       # DTB read hits
system.cpu.itb.read_misses                          0                       # DTB read misses
system.cpu.itb.stage2_mmu.stage2_tlb.accesses            0                       # DTB accesses
system.cpu.itb.stage2_mmu.stage2_tlb.align_faults            0                       # Number of TLB faults due to alignment restrictions
system.cpu.itb.stage2_mmu.stage2_tlb.domain_faults            0                       # Number of TLB faults due to domain restrictions
system.cpu.itb.stage2_mmu.stage2_tlb.flush_entries            0                       # Number of entries that have been flushed from TLB
system.cpu.itb.stage2_mmu.stage2_tlb.flush_tlb            0                       # Number of times complete TLB was flushed
system.cpu.itb.stage2_mmu.stage2_tlb.flush_tlb_asid            0                       # Number of times TLB was flushed by ASID
system.cpu.itb.stage2_mmu.stage2_tlb.flush_tlb_mva            0                       # Number of times TLB was flushed by MVA
system.cpu.itb.stage2_mmu.stage2_tlb.flush_tlb_mva_asid            0                       # Number of times TLB was flushed by MVA & ASID
system.cpu.itb.stage2_mmu.stage2_tlb.hits            0                       # DTB hits
system.cpu.itb.stage2_mmu.stage2_tlb.inst_accesses            0                       # ITB inst accesses
system.cpu.itb.stage2_mmu.stage2_tlb.inst_hits            0                       # ITB inst hits
system.cpu.itb.stage2_mmu.stage2_tlb.inst_misses            0                       # ITB inst misses
system.cpu.itb.stage2_mmu.stage2_tlb.misses            0                       # DTB misses
system.cpu.itb.stage2_mmu.stage2_tlb.perms_faults            0                       # Number of TLB faults due to permissions restrictions
system.cpu.itb.stage2_mmu.stage2_tlb.prefetch_faults            0                       # Number of TLB faults due to prefetch
system.cpu.itb.stage2_mmu.stage2_tlb.read_accesses            0                       # DTB read accesses
system.cpu.itb.stage2_mmu.stage2_tlb.read_hits            0                       # DTB read hits
system.cpu.itb.stage2_mmu.stage2_tlb.read_misses            0                       # DTB read misses
system.cpu.itb.stage2_mmu.stage2_tlb.walker.walkRequestOrigin_Requested::Data            0                       # Table walker requests started/completed, data/inst
system.cpu.itb.stage2_mmu.stage2_tlb.walker.walkRequestOrigin_Requested::Inst            0                       # Table walker requests started/completed, data/inst
system.cpu.itb.stage2_mmu.stage2_tlb.walker.walkRequestOrigin_Requested::total            0                       # Table walker requests started/completed, data/inst
system.cpu.itb.stage2_mmu.stage2_tlb.walker.walkRequestOrigin_Completed::Data            0                       # Table walker requests started/completed, data/inst
system.cpu.itb.stage2_mmu.stage2_tlb.walker.walkRequestOrigin_Completed::Inst            0                       # Table walker requests started/completed, data/inst
system.cpu.itb.stage2_mmu.stage2_tlb.walker.walkRequestOrigin_Completed::total            0                       # Table walker requests started/completed, data/inst
system.cpu.itb.stage2_mmu.stage2_tlb.walker.walkRequestOrigin::total            0                       # Table walker requests started/completed, data/inst
system.cpu.itb.stage2_mmu.stage2_tlb.walker.walks            0                       # Table walker walks requested
system.cpu.itb.stage2_mmu.stage2_tlb.write_accesses            0                       # DTB write accesses
system.cpu.itb.stage2_mmu.stage2_tlb.write_hits            0                       # DTB write hits
system.cpu.itb.stage2_mmu.stage2_tlb.write_misses            0                       # DTB write misses
system.cpu.itb.walker.walkRequestOrigin_Requested::Data            0                       # Table walker requests started/completed, data/inst
system.cpu.itb.walker.walkRequestOrigin_Requested::Inst            0                       # Table walker requests started/completed, data/inst
system.cpu.itb.walker.walkRequestOrigin_Requested::total            0                       # Table walker requests started/completed, data/inst
system.cpu.itb.walker.walkRequestOrigin_Completed::Data            0                       # Table walker requests started/completed, data/inst
system.cpu.itb.walker.walkRequestOrigin_Completed::Inst            0                       # Table walker requests started/completed, data/inst
system.cpu.itb.walker.walkRequestOrigin_Completed::total            0                       # Table walker requests started/completed, data/inst
system.cpu.itb.walker.walkRequestOrigin::total            0                       # Table walker requests started/completed, data/inst
system.cpu.itb.walker.walks                         0                       # Table walker walks requested
system.cpu.itb.write_accesses                       0                       # DTB write accesses
system.cpu.itb.write_hits                           0                       # DTB write hits
system.cpu.itb.write_misses                         0                       # DTB write misses
system.cpu.memDep0.conflictingLoads            935511                       # Number of conflicting loads.
system.cpu.memDep0.conflictingStores           234193                       # Number of conflicting stores.
system.cpu.memDep0.insertedLoads             22582142                       # Number of loads inserted to the mem dependence unit.
system.cpu.memDep0.insertedStores            15888815                       # Number of stores inserted to the mem dependence unit.
system.cpu.misc_regfile_reads                40232942                       # number of misc regfile reads
system.cpu.misc_regfile_writes                 360229                       # number of misc regfile writes
system.cpu.numCycles                         85125482                       # number of cpu cycles simulated
system.cpu.numWorkItemsCompleted                    0                       # number of work items this cpu completed
system.cpu.numWorkItemsStarted                      0                       # number of work items this cpu started
system.cpu.rename.BlockCycles                  242429                       # Number of cycles rename is blocking
system.cpu.rename.CommittedMaps             124074827                       # Number of HB maps that are committed
system.cpu.rename.FullRegisterEvents              129                       # Number of times there has been no free registers
system.cpu.rename.IQFullEvents                      3                       # Number of times rename has blocked due to IQ full
system.cpu.rename.IdleCycles                 29836548                       # Number of cycles rename is idle
system.cpu.rename.LQFullEvents                     16                       # Number of times rename has blocked due to LQ full
system.cpu.rename.ROBFullEvents                   143                       # Number of times rename has blocked due to ROB full
system.cpu.rename.RenameLookups             497969672                       # Number of register rename lookups that rename has made
system.cpu.rename.RenamedInsts              113736576                       # Number of instructions processed by rename
system.cpu.rename.RenamedOperands           129920990                       # Number of destination operands rename has renamed
system.cpu.rename.RunCycles                  47435838                       # Number of cycles rename is running
system.cpu.rename.SQFullEvents                1526353                       # Number of times rename has blocked due to SQ full
system.cpu.rename.SquashCycles                 511673                       # Number of cycles rename is squashing
system.cpu.rename.SquashedInsts               1175208                       # Number of squashed instructions processed by rename
system.cpu.rename.UnblockCycles               1830062                       # Number of cycles rename is unblocking
system.cpu.rename.UndoneMaps                  5846155                       # Number of HB maps that are undone due to squashing
system.cpu.rename.int_rename_lookups        115418938                       # Number of integer rename lookups
system.cpu.rename.serializeStallCycles        5237712                       # count of cycles rename stalled for serializing inst
system.cpu.rename.serializingInsts              90191                       # count of serializing insts renamed
system.cpu.rename.skidInsts                    812224                       # count of insts added to the skid buffer
system.cpu.rename.tempSerializingInsts          90166                       # count of temporary serializing insts renamed
system.cpu.rename.vec_rename_lookups            97790                       # Number of vector rename lookups
system.cpu.rob.rob_reads                    195893137                       # The number of ROB reads
system.cpu.rob.rob_writes                   225186525                       # The number of ROB writes
system.cpu.timesIdled                             314                       # Number of times that the entire CPU went into an idle state and unscheduled itself
system.cpu.vec_regfile_reads                    93684                       # number of vector regfile reads
system.cpu.vec_regfile_writes                   93632                       # number of vector regfile writes
system.cpu.workload.numSyscalls                    90                       # Number of system calls
system.membus.snoop_filter.hit_multi_requests            0                       # Number of requests hitting in the snoop filter with multiple (>1) holders of the requested data.
system.membus.snoop_filter.hit_multi_snoops            0                       # Number of snoops hitting in the snoop filter with multiple (>1) holders of the requested data.
system.membus.snoop_filter.hit_single_requests        26469                       # Number of requests hitting in the snoop filter with a single holder of the requested data.
system.membus.snoop_filter.hit_single_snoops            0                       # Number of snoops hitting in the snoop filter with a single holder of the requested data.
system.membus.snoop_filter.tot_requests         69709                       # Total number of requests made to the snoop filter.
system.membus.snoop_filter.tot_snoops               0                       # Total number of snoops made to the snoop filter.
system.tol2bus.snoop_filter.hit_multi_requests           81                       # Number of requests hitting in the snoop filter with multiple (>1) holders of the requested data.
system.tol2bus.snoop_filter.hit_multi_snoops            4                       # Number of snoops hitting in the snoop filter with multiple (>1) holders of the requested data.
system.tol2bus.snoop_filter.hit_single_requests        59267                       # Number of requests hitting in the snoop filter with a single holder of the requested data.
system.tol2bus.snoop_filter.hit_single_snoops          392                       # Number of snoops hitting in the snoop filter with a single holder of the requested data.
system.tol2bus.snoop_filter.tot_requests       119398                       # Total number of requests made to the snoop filter.
system.tol2bus.snoop_filter.tot_snoops            396                       # Total number of snoops made to the snoop filter.
system.membus.pwrStateResidencyTicks::UNDEFINED  53203425625                       # Cumulative time (in ticks) in various power states
system.membus.trans_dist::ReadResp               4214                       # Transaction distribution
system.membus.trans_dist::WritebackDirty        26402                       # Transaction distribution
system.membus.trans_dist::CleanEvict               66                       # Transaction distribution
system.membus.trans_dist::ReadExReq             39027                       # Transaction distribution
system.membus.trans_dist::ReadExResp            39027                       # Transaction distribution
system.membus.trans_dist::ReadSharedReq          4214                       # Transaction distribution
system.membus.pkt_count_system.l2.mem_side::system.mem_ctrls.port       112950                       # Packet count per connected master and slave (bytes)
system.membus.pkt_count::total                 112950                       # Packet count per connected master and slave (bytes)
system.membus.pkt_size_system.l2.mem_side::system.mem_ctrls.port      4457152                       # Cumulative packet size per connected master and slave (bytes)
system.membus.pkt_size::total                 4457152                       # Cumulative packet size per connected master and slave (bytes)
system.membus.snoops                                0                       # Total snoops (count)
system.membus.snoopTraffic                          0                       # Total snoop traffic (bytes)
system.membus.snoop_fanout::samples             43241                       # Request fanout histogram
system.membus.snoop_fanout::mean                    0                       # Request fanout histogram
system.membus.snoop_fanout::stdev                   0                       # Request fanout histogram
system.membus.snoop_fanout::underflows              0      0.00%      0.00% # Request fanout histogram
system.membus.snoop_fanout::0                   43241    100.00%    100.00% # Request fanout histogram
system.membus.snoop_fanout::1                       0      0.00%    100.00% # Request fanout histogram
system.membus.snoop_fanout::overflows               0      0.00%    100.00% # Request fanout histogram
system.membus.snoop_fanout::min_value               0                       # Request fanout histogram
system.membus.snoop_fanout::max_value               0                       # Request fanout histogram
system.membus.snoop_fanout::total               43241                       # Request fanout histogram
system.membus.respLayer1.occupancy          230951875                       # Layer occupancy (ticks)
system.membus.respLayer1.utilization              0.4                       # Layer utilization (%)
system.membus.reqLayer0.occupancy           200193625                       # Layer occupancy (ticks)
system.membus.reqLayer0.utilization               0.4                       # Layer utilization (%)
system.tol2bus.pwrStateResidencyTicks::UNDEFINED  53203425625                       # Cumulative time (in ticks) in various power states
system.tol2bus.trans_dist::ReadResp             21106                       # Transaction distribution
system.tol2bus.trans_dist::WritebackDirty        78702                       # Transaction distribution
system.tol2bus.trans_dist::WritebackClean           37                       # Transaction distribution
system.tol2bus.trans_dist::CleanEvict            7388                       # Transaction distribution
system.tol2bus.trans_dist::ReadExReq            39029                       # Transaction distribution
system.tol2bus.trans_dist::ReadExResp           39029                       # Transaction distribution
system.tol2bus.trans_dist::ReadCleanReq           397                       # Transaction distribution
system.tol2bus.trans_dist::ReadSharedReq        20709                       # Transaction distribution
system.tol2bus.pkt_count_system.cpu.icache.mem_side::system.l2.cpu_side          831                       # Packet count per connected master and slave (bytes)
system.tol2bus.pkt_count_system.cpu.dcache.mem_side::system.l2.cpu_side       178702                       # Packet count per connected master and slave (bytes)
system.tol2bus.pkt_count::total                179533                       # Packet count per connected master and slave (bytes)
system.tol2bus.pkt_size_system.cpu.icache.mem_side::system.l2.cpu_side        27776                       # Cumulative packet size per connected master and slave (bytes)
system.tol2bus.pkt_size_system.cpu.dcache.mem_side::system.l2.cpu_side      7170432                       # Cumulative packet size per connected master and slave (bytes)
system.tol2bus.pkt_size::total                7198208                       # Cumulative packet size per connected master and slave (bytes)
system.tol2bus.snoops                           26864                       # Total snoops (count)
system.tol2bus.snoopTraffic                   1689728                       # Total snoop traffic (bytes)
system.tol2bus.snoop_fanout::samples            86999                       # Request fanout histogram
system.tol2bus.snoop_fanout::mean            0.005575                       # Request fanout histogram
system.tol2bus.snoop_fanout::stdev           0.075071                       # Request fanout histogram
system.tol2bus.snoop_fanout::underflows             0      0.00%      0.00% # Request fanout histogram
system.tol2bus.snoop_fanout::0                  86518     99.45%     99.45% # Request fanout histogram
system.tol2bus.snoop_fanout::1                    477      0.55%    100.00% # Request fanout histogram
system.tol2bus.snoop_fanout::2                      4      0.00%    100.00% # Request fanout histogram
system.tol2bus.snoop_fanout::overflows              0      0.00%    100.00% # Request fanout histogram
system.tol2bus.snoop_fanout::min_value              0                       # Request fanout histogram
system.tol2bus.snoop_fanout::max_value              2                       # Request fanout histogram
system.tol2bus.snoop_fanout::total              86999                       # Request fanout histogram
system.tol2bus.reqLayer0.occupancy          140045000                       # Layer occupancy (ticks)
system.tol2bus.reqLayer0.utilization              0.3                       # Layer utilization (%)
system.tol2bus.respLayer1.occupancy         112011246                       # Layer occupancy (ticks)
system.tol2bus.respLayer1.utilization             0.2                       # Layer utilization (%)
system.tol2bus.respLayer0.occupancy            746247                       # Layer occupancy (ticks)
system.tol2bus.respLayer0.utilization             0.0                       # Layer utilization (%)
system.voltage_domain.voltage                       1                       # Voltage in Volts
system.clk_domain.clock                          1000                       # Clock period in ticks
system.l2.pwrStateResidencyTicks::UNDEFINED  53203425625                       # Cumulative time (in ticks) in various power states
system.l2.demand_hits::.cpu.inst                   12                       # number of demand (read+write) hits
system.l2.demand_hits::.cpu.data                16875                       # number of demand (read+write) hits
system.l2.demand_hits::total                    16887                       # number of demand (read+write) hits
system.l2.overall_hits::.cpu.inst                  12                       # number of overall hits
system.l2.overall_hits::.cpu.data               16875                       # number of overall hits
system.l2.overall_hits::total                   16887                       # number of overall hits
system.l2.demand_misses::.cpu.inst                385                       # number of demand (read+write) misses
system.l2.demand_misses::.cpu.data              42863                       # number of demand (read+write) misses
system.l2.demand_misses::total                  43248                       # number of demand (read+write) misses
system.l2.overall_misses::.cpu.inst               385                       # number of overall misses
system.l2.overall_misses::.cpu.data             42863                       # number of overall misses
system.l2.overall_misses::total                 43248                       # number of overall misses
system.l2.demand_miss_latency::.cpu.inst     32510000                       # number of demand (read+write) miss cycles
system.l2.demand_miss_latency::.cpu.data   3705909375                       # number of demand (read+write) miss cycles
system.l2.demand_miss_latency::total       3738419375                       # number of demand (read+write) miss cycles
system.l2.overall_miss_latency::.cpu.inst     32510000                       # number of overall miss cycles
system.l2.overall_miss_latency::.cpu.data   3705909375                       # number of overall miss cycles
system.l2.overall_miss_latency::total      3738419375                       # number of overall miss cycles
system.l2.demand_accesses::.cpu.inst              397                       # number of demand (read+write) accesses
system.l2.demand_accesses::.cpu.data            59738                       # number of demand (read+write) accesses
system.l2.demand_accesses::total                60135                       # number of demand (read+write) accesses
system.l2.overall_accesses::.cpu.inst             397                       # number of overall (read+write) accesses
system.l2.overall_accesses::.cpu.data           59738                       # number of overall (read+write) accesses
system.l2.overall_accesses::total               60135                       # number of overall (read+write) accesses
system.l2.demand_miss_rate::.cpu.inst        0.969773                       # miss rate for demand accesses
system.l2.demand_miss_rate::.cpu.data        0.717516                       # miss rate for demand accesses
system.l2.demand_miss_rate::total            0.719182                       # miss rate for demand accesses
system.l2.overall_miss_rate::.cpu.inst       0.969773                       # miss rate for overall accesses
system.l2.overall_miss_rate::.cpu.data       0.717516                       # miss rate for overall accesses
system.l2.overall_miss_rate::total           0.719182                       # miss rate for overall accesses
system.l2.demand_avg_miss_latency::.cpu.inst 84441.558442                       # average overall miss latency
system.l2.demand_avg_miss_latency::.cpu.data 86459.402632                       # average overall miss latency
system.l2.demand_avg_miss_latency::total 86441.439489                       # average overall miss latency
system.l2.overall_avg_miss_latency::.cpu.inst 84441.558442                       # average overall miss latency
system.l2.overall_avg_miss_latency::.cpu.data 86459.402632                       # average overall miss latency
system.l2.overall_avg_miss_latency::total 86441.439489                       # average overall miss latency
system.l2.blocked_cycles::no_mshrs                  0                       # number of cycles access was blocked
system.l2.blocked_cycles::no_targets                0                       # number of cycles access was blocked
system.l2.blocked::no_mshrs                         0                       # number of cycles access was blocked
system.l2.blocked::no_targets                       0                       # number of cycles access was blocked
system.l2.avg_blocked_cycles::no_mshrs            nan                       # average number of cycles each access was blocked
system.l2.avg_blocked_cycles::no_targets          nan                       # average number of cycles each access was blocked
system.l2.writebacks::.writebacks               26402                       # number of writebacks
system.l2.writebacks::total                     26402                       # number of writebacks
system.l2.demand_mshr_hits::.cpu.inst               3                       # number of demand (read+write) MSHR hits
system.l2.demand_mshr_hits::.cpu.data               4                       # number of demand (read+write) MSHR hits
system.l2.demand_mshr_hits::total                   7                       # number of demand (read+write) MSHR hits
system.l2.overall_mshr_hits::.cpu.inst              3                       # number of overall MSHR hits
system.l2.overall_mshr_hits::.cpu.data              4                       # number of overall MSHR hits
system.l2.overall_mshr_hits::total                  7                       # number of overall MSHR hits
system.l2.demand_mshr_misses::.cpu.inst           382                       # number of demand (read+write) MSHR misses
system.l2.demand_mshr_misses::.cpu.data         42859                       # number of demand (read+write) MSHR misses
system.l2.demand_mshr_misses::total             43241                       # number of demand (read+write) MSHR misses
system.l2.overall_mshr_misses::.cpu.inst          382                       # number of overall MSHR misses
system.l2.overall_mshr_misses::.cpu.data        42859                       # number of overall MSHR misses
system.l2.overall_mshr_misses::total            43241                       # number of overall MSHR misses
system.l2.demand_mshr_miss_latency::.cpu.inst     27400625                       # number of demand (read+write) MSHR miss cycles
system.l2.demand_mshr_miss_latency::.cpu.data   3159284750                       # number of demand (read+write) MSHR miss cycles
system.l2.demand_mshr_miss_latency::total   3186685375                       # number of demand (read+write) MSHR miss cycles
system.l2.overall_mshr_miss_latency::.cpu.inst     27400625                       # number of overall MSHR miss cycles
system.l2.overall_mshr_miss_latency::.cpu.data   3159284750                       # number of overall MSHR miss cycles
system.l2.overall_mshr_miss_latency::total   3186685375                       # number of overall MSHR miss cycles
system.l2.demand_mshr_miss_rate::.cpu.inst     0.962217                       # mshr miss rate for demand accesses
system.l2.demand_mshr_miss_rate::.cpu.data     0.717450                       # mshr miss rate for demand accesses
system.l2.demand_mshr_miss_rate::total       0.719065                       # mshr miss rate for demand accesses
system.l2.overall_mshr_miss_rate::.cpu.inst     0.962217                       # mshr miss rate for overall accesses
system.l2.overall_mshr_miss_rate::.cpu.data     0.717450                       # mshr miss rate for overall accesses
system.l2.overall_mshr_miss_rate::total      0.719065                       # mshr miss rate for overall accesses
system.l2.demand_avg_mshr_miss_latency::.cpu.inst 71729.384817                       # average overall mshr miss latency
system.l2.demand_avg_mshr_miss_latency::.cpu.data 73713.449917                       # average overall mshr miss latency
system.l2.demand_avg_mshr_miss_latency::total 73695.922273                       # average overall mshr miss latency
system.l2.overall_avg_mshr_miss_latency::.cpu.inst 71729.384817                       # average overall mshr miss latency
system.l2.overall_avg_mshr_miss_latency::.cpu.data 73713.449917                       # average overall mshr miss latency
system.l2.overall_avg_mshr_miss_latency::total 73695.922273                       # average overall mshr miss latency
system.l2.replacements                          26864                       # number of replacements
system.l2.WritebackDirty_hits::.writebacks        52300                       # number of WritebackDirty hits
system.l2.WritebackDirty_hits::total            52300                       # number of WritebackDirty hits
system.l2.WritebackDirty_accesses::.writebacks        52300                       # number of WritebackDirty accesses(hits+misses)
system.l2.WritebackDirty_accesses::total        52300                       # number of WritebackDirty accesses(hits+misses)
system.l2.WritebackClean_hits::.writebacks           35                       # number of WritebackClean hits
system.l2.WritebackClean_hits::total               35                       # number of WritebackClean hits
system.l2.WritebackClean_accesses::.writebacks           35                       # number of WritebackClean accesses(hits+misses)
system.l2.WritebackClean_accesses::total           35                       # number of WritebackClean accesses(hits+misses)
system.l2.ReadExReq_hits::.cpu.data                 2                       # number of ReadExReq hits
system.l2.ReadExReq_hits::total                     2                       # number of ReadExReq hits
system.l2.ReadExReq_misses::.cpu.data           39027                       # number of ReadExReq misses
system.l2.ReadExReq_misses::total               39027                       # number of ReadExReq misses
system.l2.ReadExReq_miss_latency::.cpu.data   3344220000                       # number of ReadExReq miss cycles
system.l2.ReadExReq_miss_latency::total    3344220000                       # number of ReadExReq miss cycles
system.l2.ReadExReq_accesses::.cpu.data         39029                       # number of ReadExReq accesses(hits+misses)
system.l2.ReadExReq_accesses::total             39029                       # number of ReadExReq accesses(hits+misses)
system.l2.ReadExReq_miss_rate::.cpu.data     0.999949                       # miss rate for ReadExReq accesses
system.l2.ReadExReq_miss_rate::total         0.999949                       # miss rate for ReadExReq accesses
system.l2.ReadExReq_avg_miss_latency::.cpu.data 85689.906987                       # average ReadExReq miss latency
system.l2.ReadExReq_avg_miss_latency::total 85689.906987                       # average ReadExReq miss latency
system.l2.ReadExReq_mshr_misses::.cpu.data        39027                       # number of ReadExReq MSHR misses
system.l2.ReadExReq_mshr_misses::total          39027                       # number of ReadExReq MSHR misses
system.l2.ReadExReq_mshr_miss_latency::.cpu.data   2846709500                       # number of ReadExReq MSHR miss cycles
system.l2.ReadExReq_mshr_miss_latency::total   2846709500                       # number of ReadExReq MSHR miss cycles
system.l2.ReadExReq_mshr_miss_rate::.cpu.data     0.999949                       # mshr miss rate for ReadExReq accesses
system.l2.ReadExReq_mshr_miss_rate::total     0.999949                       # mshr miss rate for ReadExReq accesses
system.l2.ReadExReq_avg_mshr_miss_latency::.cpu.data 72942.052938                       # average ReadExReq mshr miss latency
system.l2.ReadExReq_avg_mshr_miss_latency::total 72942.052938                       # average ReadExReq mshr miss latency
system.l2.ReadCleanReq_hits::.cpu.inst             12                       # number of ReadCleanReq hits
system.l2.ReadCleanReq_hits::total                 12                       # number of ReadCleanReq hits
system.l2.ReadCleanReq_misses::.cpu.inst          385                       # number of ReadCleanReq misses
system.l2.ReadCleanReq_misses::total              385                       # number of ReadCleanReq misses
system.l2.ReadCleanReq_miss_latency::.cpu.inst     32510000                       # number of ReadCleanReq miss cycles
system.l2.ReadCleanReq_miss_latency::total     32510000                       # number of ReadCleanReq miss cycles
system.l2.ReadCleanReq_accesses::.cpu.inst          397                       # number of ReadCleanReq accesses(hits+misses)
system.l2.ReadCleanReq_accesses::total            397                       # number of ReadCleanReq accesses(hits+misses)
system.l2.ReadCleanReq_miss_rate::.cpu.inst     0.969773                       # miss rate for ReadCleanReq accesses
system.l2.ReadCleanReq_miss_rate::total      0.969773                       # miss rate for ReadCleanReq accesses
system.l2.ReadCleanReq_avg_miss_latency::.cpu.inst 84441.558442                       # average ReadCleanReq miss latency
system.l2.ReadCleanReq_avg_miss_latency::total 84441.558442                       # average ReadCleanReq miss latency
system.l2.ReadCleanReq_mshr_hits::.cpu.inst            3                       # number of ReadCleanReq MSHR hits
system.l2.ReadCleanReq_mshr_hits::total             3                       # number of ReadCleanReq MSHR hits
system.l2.ReadCleanReq_mshr_misses::.cpu.inst          382                       # number of ReadCleanReq MSHR misses
system.l2.ReadCleanReq_mshr_misses::total          382                       # number of ReadCleanReq MSHR misses
[...]
system.cpu.icache.tags.age_task_id_blocks_1024::4          360                       # Occupied blocks per task id
system.cpu.icache.tags.occ_task_id_percent::1024     0.703125                       # Percentage of cache occupancy per task id
system.cpu.icache.tags.tag_accesses         109927165                       # Number of tag accesses
system.cpu.icache.tags.data_accesses        109927165                       # Number of data accesses
system.cpu.dtb.walker.pwrStateResidencyTicks::UNDEFINED  53203425625                       # Cumulative time (in ticks) in various power states
system.cpu.dtb.stage2_mmu.stage2_tlb.walker.pwrStateResidencyTicks::UNDEFINED  53203425625                       # Cumulative time (in ticks) in various power states
system.cpu.itb.walker.pwrStateResidencyTicks::UNDEFINED  53203425625                       # Cumulative time (in ticks) in various power states
system.cpu.itb.stage2_mmu.stage2_tlb.walker.pwrStateResidencyTicks::UNDEFINED  53203425625                       # Cumulative time (in ticks) in various power states
system.cpu.dcache.pwrStateResidencyTicks::UNDEFINED  53203425625                       # Cumulative time (in ticks) in various power states
system.cpu.dcache.demand_hits::.cpu.data     35499120                       # number of demand (read+write) hits
system.cpu.dcache.demand_hits::total         35499120                       # number of demand (read+write) hits
system.cpu.dcache.overall_hits::.cpu.data     35502491                       # number of overall hits
system.cpu.dcache.overall_hits::total        35502491                       # number of overall hits
system.cpu.dcache.demand_misses::.cpu.data       138760                       # number of demand (read+write) misses
system.cpu.dcache.demand_misses::total         138760                       # number of demand (read+write) misses
system.cpu.dcache.overall_misses::.cpu.data       138801                       # number of overall misses
system.cpu.dcache.overall_misses::total        138801                       # number of overall misses
system.cpu.dcache.demand_miss_latency::.cpu.data   9949155625                       # number of demand (read+write) miss cycles
system.cpu.dcache.demand_miss_latency::total   9949155625                       # number of demand (read+write) miss cycles
system.cpu.dcache.overall_miss_latency::.cpu.data   9949155625                       # number of overall miss cycles
system.cpu.dcache.overall_miss_latency::total   9949155625                       # number of overall miss cycles
system.cpu.dcache.demand_accesses::.cpu.data     35637880                       # number of demand (read+write) accesses
system.cpu.dcache.demand_accesses::total     35637880                       # number of demand (read+write) accesses
system.cpu.dcache.overall_accesses::.cpu.data     35641292                       # number of overall (read+write) accesses
system.cpu.dcache.overall_accesses::total     35641292                       # number of overall (read+write) accesses
system.cpu.dcache.demand_miss_rate::.cpu.data     0.003894                       # miss rate for demand accesses
system.cpu.dcache.demand_miss_rate::total     0.003894                       # miss rate for demand accesses
system.cpu.dcache.overall_miss_rate::.cpu.data     0.003894                       # miss rate for overall accesses
system.cpu.dcache.overall_miss_rate::total     0.003894                       # miss rate for overall accesses
system.cpu.dcache.demand_avg_miss_latency::.cpu.data 71700.458526                       # average overall miss latency
system.cpu.dcache.demand_avg_miss_latency::total 71700.458526                       # average overall miss latency
system.cpu.dcache.overall_avg_miss_latency::.cpu.data 71679.279148                       # average overall miss latency
system.cpu.dcache.overall_avg_miss_latency::total 71679.279148                       # average overall miss latency
system.cpu.dcache.blocked_cycles::no_mshrs          246                       # number of cycles access was blocked
system.cpu.dcache.blocked_cycles::no_targets            0                       # number of cycles access was blocked
system.cpu.dcache.blocked::no_mshrs                 3                       # number of cycles access was blocked
system.cpu.dcache.blocked::no_targets               0                       # number of cycles access was blocked
system.cpu.dcache.avg_blocked_cycles::no_mshrs           82                       # average number of cycles each access was blocked
system.cpu.dcache.avg_blocked_cycles::no_targets          nan                       # average number of cycles each access was blocked
system.cpu.dcache.writebacks::.writebacks        52300                       # number of writebacks
system.cpu.dcache.writebacks::total             52300                       # number of writebacks
system.cpu.dcache.demand_mshr_hits::.cpu.data        79061                       # number of demand (read+write) MSHR hits
system.cpu.dcache.demand_mshr_hits::total        79061                       # number of demand (read+write) MSHR hits
system.cpu.dcache.overall_mshr_hits::.cpu.data        79061                       # number of overall MSHR hits
system.cpu.dcache.overall_mshr_hits::total        79061                       # number of overall MSHR hits
system.cpu.dcache.demand_mshr_misses::.cpu.data        59699                       # number of demand (read+write) MSHR misses
system.cpu.dcache.demand_mshr_misses::total        59699                       # number of demand (read+write) MSHR misses
system.cpu.dcache.overall_mshr_misses::.cpu.data        59736                       # number of overall MSHR misses
system.cpu.dcache.overall_mshr_misses::total        59736                       # number of overall MSHR misses
system.cpu.dcache.demand_mshr_miss_latency::.cpu.data   4037921875                       # number of demand (read+write) MSHR miss cycles
system.cpu.dcache.demand_mshr_miss_latency::total   4037921875                       # number of demand (read+write) MSHR miss cycles
system.cpu.dcache.overall_mshr_miss_latency::.cpu.data   4039368125                       # number of overall MSHR miss cycles
system.cpu.dcache.overall_mshr_miss_latency::total   4039368125                       # number of overall MSHR miss cycles
system.cpu.dcache.demand_mshr_miss_rate::.cpu.data     0.001675                       # mshr miss rate for demand accesses
system.cpu.dcache.demand_mshr_miss_rate::total     0.001675                       # mshr miss rate for demand accesses
system.cpu.dcache.overall_mshr_miss_rate::.cpu.data     0.001676                       # mshr miss rate for overall accesses
system.cpu.dcache.overall_mshr_miss_rate::total     0.001676                       # mshr miss rate for overall accesses
system.cpu.dcache.demand_avg_mshr_miss_latency::.cpu.data 67638.015293                       # average overall mshr miss latency
system.cpu.dcache.demand_avg_mshr_miss_latency::total 67638.015293                       # average overall mshr miss latency
system.cpu.dcache.overall_avg_mshr_miss_latency::.cpu.data 67620.331542                       # average overall mshr miss latency
system.cpu.dcache.overall_avg_mshr_miss_latency::total 67620.331542                       # average overall mshr miss latency
system.cpu.dcache.replacements                  59226                       # number of replacements
system.cpu.dcache.ReadReq_hits::.cpu.data     20889995                       # number of ReadReq hits
system.cpu.dcache.ReadReq_hits::total        20889995                       # number of ReadReq hits
system.cpu.dcache.ReadReq_misses::.cpu.data        32835                       # number of ReadReq misses
system.cpu.dcache.ReadReq_misses::total         32835                       # number of ReadReq misses
system.cpu.dcache.ReadReq_miss_latency::.cpu.data   1239006250                       # number of ReadReq miss cycles
system.cpu.dcache.ReadReq_miss_latency::total   1239006250                       # number of ReadReq miss cycles
system.cpu.dcache.ReadReq_accesses::.cpu.data     20922830                       # number of ReadReq accesses(hits+misses)
system.cpu.dcache.ReadReq_accesses::total     20922830                       # number of ReadReq accesses(hits+misses)
system.cpu.dcache.ReadReq_miss_rate::.cpu.data     0.001569                       # miss rate for ReadReq accesses
system.cpu.dcache.ReadReq_miss_rate::total     0.001569                       # miss rate for ReadReq accesses
system.cpu.dcache.ReadReq_avg_miss_latency::.cpu.data 37734.315517                       # average ReadReq miss latency
system.cpu.dcache.ReadReq_avg_miss_latency::total 37734.315517                       # average ReadReq miss latency
system.cpu.dcache.ReadReq_mshr_hits::.cpu.data        12165                       # number of ReadReq MSHR hits
system.cpu.dcache.ReadReq_mshr_hits::total        12165                       # number of ReadReq MSHR hits
system.cpu.dcache.ReadReq_mshr_misses::.cpu.data        20670                       # number of ReadReq MSHR misses
system.cpu.dcache.ReadReq_mshr_misses::total        20670                       # number of ReadReq MSHR misses
system.cpu.dcache.ReadReq_mshr_miss_latency::.cpu.data    620483750                       # number of ReadReq MSHR miss cycles
system.cpu.dcache.ReadReq_mshr_miss_latency::total    620483750                       # number of ReadReq MSHR miss cycles
system.cpu.dcache.ReadReq_mshr_miss_rate::.cpu.data     0.000988                       # mshr miss rate for ReadReq accesses
system.cpu.dcache.ReadReq_mshr_miss_rate::total     0.000988                       # mshr miss rate for ReadReq accesses
system.cpu.dcache.ReadReq_avg_mshr_miss_latency::.cpu.data 30018.565554                       # average ReadReq mshr miss latency
system.cpu.dcache.ReadReq_avg_mshr_miss_latency::total 30018.565554                       # average ReadReq mshr miss latency
system.cpu.dcache.WriteReq_hits::.cpu.data     14609125                       # number of WriteReq hits
system.cpu.dcache.WriteReq_hits::total       14609125                       # number of WriteReq hits
system.cpu.dcache.WriteReq_misses::.cpu.data       105925                       # number of WriteReq misses
system.cpu.dcache.WriteReq_misses::total       105925                       # number of WriteReq misses
system.cpu.dcache.WriteReq_miss_latency::.cpu.data   8710149375                       # number of WriteReq miss cycles
system.cpu.dcache.WriteReq_miss_latency::total   8710149375                       # number of WriteReq miss cycles
system.cpu.dcache.WriteReq_accesses::.cpu.data     14715050                       # number of WriteReq accesses(hits+misses)
system.cpu.dcache.WriteReq_accesses::total     14715050                       # number of WriteReq accesses(hits+misses)
system.cpu.dcache.WriteReq_miss_rate::.cpu.data     0.007198                       # miss rate for WriteReq accesses
system.cpu.dcache.WriteReq_miss_rate::total     0.007198                       # miss rate for WriteReq accesses
system.cpu.dcache.WriteReq_avg_miss_latency::.cpu.data 82229.401699                       # average WriteReq miss latency
system.cpu.dcache.WriteReq_avg_miss_latency::total 82229.401699                       # average WriteReq miss latency
system.cpu.dcache.WriteReq_mshr_hits::.cpu.data        66896                       # number of WriteReq MSHR hits
system.cpu.dcache.WriteReq_mshr_hits::total        66896                       # number of WriteReq MSHR hits
system.cpu.dcache.WriteReq_mshr_misses::.cpu.data        39029                       # number of WriteReq MSHR misses
system.cpu.dcache.WriteReq_mshr_misses::total        39029                       # number of WriteReq MSHR misses
system.cpu.dcache.WriteReq_mshr_miss_latency::.cpu.data   3417438125                       # number of WriteReq MSHR miss cycles
system.cpu.dcache.WriteReq_mshr_miss_latency::total   3417438125                       # number of WriteReq MSHR miss cycles
system.cpu.dcache.WriteReq_mshr_miss_rate::.cpu.data     0.002652                       # mshr miss rate for WriteReq accesses
system.cpu.dcache.WriteReq_mshr_miss_rate::total     0.002652                       # mshr miss rate for WriteReq accesses
system.cpu.dcache.WriteReq_avg_mshr_miss_latency::.cpu.data 87561.508750                       # average WriteReq mshr miss latency
system.cpu.dcache.WriteReq_avg_mshr_miss_latency::total 87561.508750                       # average WriteReq mshr miss latency
system.cpu.dcache.SoftPFReq_hits::.cpu.data         3371                       # number of SoftPFReq hits
system.cpu.dcache.SoftPFReq_hits::total          3371                       # number of SoftPFReq hits
system.cpu.dcache.SoftPFReq_misses::.cpu.data           41                       # number of SoftPFReq misses
system.cpu.dcache.SoftPFReq_misses::total           41                       # number of SoftPFReq misses
system.cpu.dcache.SoftPFReq_accesses::.cpu.data         3412                       # number of SoftPFReq accesses(hits+misses)
system.cpu.dcache.SoftPFReq_accesses::total         3412                       # number of SoftPFReq accesses(hits+misses)
system.cpu.dcache.SoftPFReq_miss_rate::.cpu.data     0.012016                       # miss rate for SoftPFReq accesses
system.cpu.dcache.SoftPFReq_miss_rate::total     0.012016                       # miss rate for SoftPFReq accesses
system.cpu.dcache.SoftPFReq_mshr_misses::.cpu.data           37                       # number of SoftPFReq MSHR misses
system.cpu.dcache.SoftPFReq_mshr_misses::total           37                       # number of SoftPFReq MSHR misses
system.cpu.dcache.SoftPFReq_mshr_miss_latency::.cpu.data      1446250                       # number of SoftPFReq MSHR miss cycles
system.cpu.dcache.SoftPFReq_mshr_miss_latency::total      1446250                       # number of SoftPFReq MSHR miss cycles
system.cpu.dcache.SoftPFReq_mshr_miss_rate::.cpu.data     0.010844                       # mshr miss rate for SoftPFReq accesses
system.cpu.dcache.SoftPFReq_mshr_miss_rate::total     0.010844                       # mshr miss rate for SoftPFReq accesses
system.cpu.dcache.SoftPFReq_avg_mshr_miss_latency::.cpu.data 39087.837838                       # average SoftPFReq mshr miss latency
system.cpu.dcache.SoftPFReq_avg_mshr_miss_latency::total 39087.837838                       # average SoftPFReq mshr miss latency
system.cpu.dcache.LoadLockedReq_hits::.cpu.data        90059                       # number of LoadLockedReq hits
system.cpu.dcache.LoadLockedReq_hits::total        90059                       # number of LoadLockedReq hits
system.cpu.dcache.LoadLockedReq_misses::.cpu.data            4                       # number of LoadLockedReq misses
system.cpu.dcache.LoadLockedReq_misses::total            4                       # number of LoadLockedReq misses
system.cpu.dcache.LoadLockedReq_miss_latency::.cpu.data       618125                       # number of LoadLockedReq miss cycles
system.cpu.dcache.LoadLockedReq_miss_latency::total       618125                       # number of LoadLockedReq miss cycles
system.cpu.dcache.LoadLockedReq_accesses::.cpu.data        90063                       # number of LoadLockedReq accesses(hits+misses)
system.cpu.dcache.LoadLockedReq_accesses::total        90063                       # number of LoadLockedReq accesses(hits+misses)
system.cpu.dcache.LoadLockedReq_miss_rate::.cpu.data     0.000044                       # miss rate for LoadLockedReq accesses
system.cpu.dcache.LoadLockedReq_miss_rate::total     0.000044                       # miss rate for LoadLockedReq accesses
system.cpu.dcache.LoadLockedReq_avg_miss_latency::.cpu.data 154531.250000                       # average LoadLockedReq miss latency
system.cpu.dcache.LoadLockedReq_avg_miss_latency::total 154531.250000                       # average LoadLockedReq miss latency
system.cpu.dcache.LoadLockedReq_mshr_hits::.cpu.data            2                       # number of LoadLockedReq MSHR hits
system.cpu.dcache.LoadLockedReq_mshr_hits::total            2                       # number of LoadLockedReq MSHR hits
system.cpu.dcache.LoadLockedReq_mshr_misses::.cpu.data            2                       # number of LoadLockedReq MSHR misses
system.cpu.dcache.LoadLockedReq_mshr_misses::total            2                       # number of LoadLockedReq MSHR misses
system.cpu.dcache.LoadLockedReq_mshr_miss_latency::.cpu.data       168750                       # number of LoadLockedReq MSHR miss cycles
system.cpu.dcache.LoadLockedReq_mshr_miss_latency::total       168750                       # number of LoadLockedReq MSHR miss cycles
system.cpu.dcache.LoadLockedReq_mshr_miss_rate::.cpu.data     0.000022                       # mshr miss rate for LoadLockedReq accesses
system.cpu.dcache.LoadLockedReq_mshr_miss_rate::total     0.000022                       # mshr miss rate for LoadLockedReq accesses
system.cpu.dcache.LoadLockedReq_avg_mshr_miss_latency::.cpu.data        84375                       # average LoadLockedReq mshr miss latency
system.cpu.dcache.LoadLockedReq_avg_mshr_miss_latency::total        84375                       # average LoadLockedReq mshr miss latency
system.cpu.dcache.StoreCondReq_hits::.cpu.data        90057                       # number of StoreCondReq hits
system.cpu.dcache.StoreCondReq_hits::total        90057                       # number of StoreCondReq hits
system.cpu.dcache.StoreCondReq_accesses::.cpu.data        90057                       # number of StoreCondReq accesses(hits+misses)
system.cpu.dcache.StoreCondReq_accesses::total        90057                       # number of StoreCondReq accesses(hits+misses)
system.cpu.dcache.tags.pwrStateResidencyTicks::UNDEFINED  53203425625                       # Cumulative time (in ticks) in various power states
system.cpu.dcache.tags.tagsinuse           511.305734                       # Cycle average of tags in use
system.cpu.dcache.tags.total_refs            35742345                       # Total number of references to valid blocks.
system.cpu.dcache.tags.sampled_refs             59738                       # Sample count of references to valid blocks.
system.cpu.dcache.tags.avg_refs            598.318407                       # Average number of references to valid blocks.
system.cpu.dcache.tags.warmup_cycle            116875                       # Cycle when the warmup percentage was hit.
system.cpu.dcache.tags.occ_blocks::.cpu.data   511.305734                       # Average occupied blocks per requestor
system.cpu.dcache.tags.occ_percent::.cpu.data     0.998644                       # Average percentage of cache occupancy
system.cpu.dcache.tags.occ_percent::total     0.998644                       # Average percentage of cache occupancy
system.cpu.dcache.tags.occ_task_id_blocks::1024          512                       # Occupied blocks per task id
system.cpu.dcache.tags.age_task_id_blocks_1024::0           14                       # Occupied blocks per task id
system.cpu.dcache.tags.age_task_id_blocks_1024::1          114                       # Occupied blocks per task id
system.cpu.dcache.tags.age_task_id_blocks_1024::2          339                       # Occupied blocks per task id
system.cpu.dcache.tags.age_task_id_blocks_1024::3           12                       # Occupied blocks per task id
system.cpu.dcache.tags.age_task_id_blocks_1024::4           33                       # Occupied blocks per task id
system.cpu.dcache.tags.occ_task_id_percent::1024            1                       # Percentage of cache occupancy per task id
system.cpu.dcache.tags.tag_accesses         143345386                       # Number of tag accesses
system.cpu.dcache.tags.data_accesses        143345386                       # Number of data accesses

---------- End Simulation Statistics   ----------
