
---------- Begin Simulation Statistics ----------
final_tick                                74576907500                       # Number of ticks from beginning of simulation (restored from checkpoints and never reset)
host_inst_rate                                 394274                       # Simulator instruction rate (inst/s)
host_mem_usage                                 677260                       # Number of bytes of host memory used
host_op_rate                                   430247                       # Simulator op (including micro ops) rate (op/s)
host_seconds                                   253.63                       # Real time elapsed on the host
host_tick_rate                              294037272                       # Simulator tick rate (ticks/s)
sim_freq                                 1000000000000                       # Frequency of simulated ticks
sim_insts                                   100000000                       # Number of instructions simulated
sim_ops                                     109123905                       # Number of ops (including micro ops) simulated
sim_seconds                                  0.074577                       # Number of seconds simulated
sim_ticks                                 74576907500                       # Number of ticks simulated
system.cpu.branchPred.BTBCorrect                    0                       # Number of correct BTB predictions (this stat may not work properly.
system.cpu.branchPred.BTBHitPct             90.093220                       # BTB Hit Percentage
system.cpu.branchPred.BTBHits                 9312919                       # Number of BTB hits
system.cpu.branchPred.BTBLookups             10336981                       # Number of BTB lookups
system.cpu.branchPred.RASInCorrect              45667                       # Number of incorrect RAS predictions.
system.cpu.branchPred.condIncorrect            476687                       # Number of conditional branches incorrect
system.cpu.branchPred.condPredicted          17761997                       # Number of conditional branches predicted
system.cpu.branchPred.indirectHits             303385                       # Number of indirect target hits.
system.cpu.branchPred.indirectLookups          391513                       # Number of indirect predictor lookups.
system.cpu.branchPred.indirectMisses            88128                       # Number of indirect misses.
system.cpu.branchPred.lookups                22396636                       # Number of BP lookups
system.cpu.branchPred.usedRAS                 1283421                       # Number of times the RAS was used to get a target.
system.cpu.branchPredindirectMispredicted         1052                       # Number of mispredicted indirect branches.
system.cpu.committedInsts                   100000000                       # Number of instructions committed
system.cpu.committedOps                     109123905                       # Number of ops (including micro ops) committed
system.cpu.cpi                               1.193231                       # CPI: cycles per instruction
system.cpu.discardedOps                       1473173                       # Number of ops (including micro ops) which were discarded before commit
system.cpu.dtb.accesses                             0                       # DTB accesses
system.cpu.dtb.align_faults                         0                       # Number of TLB faults due to alignment restrictions
system.cpu.dtb.domain_faults                        0                       # Number of TLB faults due to domain restrictions
system.cpu.dtb.flush_entries                        0                       # Number of entries that have been flushed from TLB
system.cpu.dtb.flush_tlb                            0                       # Number of times complete TLB was flushed
system.cpu.dtb.flush_tlb_asid                       0                       # Number of times TLB was flushed by ASID
system.cpu.dtb.flush_tlb_mva                        0                       # Number of times TLB was flushed by MVA
system.cpu.dtb.flush_tlb_mva_asid                   0                       # Number of times TLB was flushed by MVA & ASID
system.cpu.dtb.hits                                 0                       # DTB hits
system.cpu.dtb.inst_accesses                        0                       # ITB inst accesses
system.cpu.dtb.inst_hits                            0                       # ITB inst hits
system.cpu.dtb.inst_misses                          0                       # ITB inst misses
system.cpu.dtb.misses                               0                       # DTB misses
system.cpu.dtb.perms_faults                         0                       # Number of TLB faults due to permissions restrictions
system.cpu.dtb.prefetch_faults                      0                       # Number of TLB faults due to prefetch
system.cpu.dtb.read_accesses                        0                       # DTB read accesses
system.cpu.dtb.read_hits                            0                       # DTB read hits
system.cpu.dtb.read_misses                          0                       # DTB read misses
system.cpu.dtb.stage2_mmu.stage2_tlb.accesses            0                       # DTB accesses
system.cpu.dtb.stage2_mmu.stage2_tlb.align_faults            0                       # Number of TLB faults due to alignment restrictions
system.cpu.dtb.stage2_mmu.stage2_tlb.domain_faults            0                       # Number of TLB faults due to domain restrictions
system.cpu.dtb.stage2_mmu.stage2_tlb.flush_entries            0                       # Number of entries that have been flushed from TLB
system.cpu.dtb.stage2_mmu.stage2_tlb.flush_tlb            0                       # Number of times complete TLB was flushed
system.cpu.dtb.stage2_mmu.stage2_tlb.flush_tlb_asid            0                       # Number of times TLB was flushed by ASID
system.cpu.dtb.stage2_mmu.stage2_tlb.flush_tlb_mva            0                       # Number of times TLB was flushed by MVA
system.cpu.dtb.stage2_mmu.stage2_tlb.flush_tlb_mva_asid            0                       # Number of times TLB was flushed by MVA & ASID
system.cpu.dtb.stage2_mmu.stage2_tlb.hits            0                       # DTB hits
system.cpu.dtb.stage2_mmu.stage2_tlb.inst_accesses            0                       # ITB inst accesses
system.cpu.dtb.stage2_mmu.stage2_tlb.inst_hits            0                       # ITB inst hits
system.cpu.dtb.stage2_mmu.stage2_tlb.inst_misses            0                       # ITB inst misses
system.cpu.dtb.stage2_mmu.stage2_tlb.misses            0                       # DTB misses
system.cpu.dtb.stage2_mmu.stage2_tlb.perms_faults            0                       # Number of TLB faults due to permissions restrictions
system.cpu.dtb.stage2_mmu.stage2_tlb.prefetch_faults            0                       # Number of TLB faults due to prefetch
system.cpu.dtb.stage2_mmu.stage2_tlb.read_accesses            0                       # DTB read accesses
system.cpu.dtb.stage2_mmu.stage2_tlb.read_hits            0                       # DTB read hits
system.cpu.dtb.stage2_mmu.stage2_tlb.read_misses            0                       # DTB read misses
system.cpu.dtb.stage2_mmu.stage2_tlb.walker.walkRequestOrigin_Requested::Data            0                       # Table walker requests started/completed, data/inst
system.cpu.dtb.stage2_mmu.stage2_tlb.walker.walkRequestOrigin_Requested::Inst            0                       # Table walker requests started/completed, data/inst
system.cpu.dtb.stage2_mmu.stage2_tlb.walker.walkRequestOrigin_Requested::total            0                       # Table walker requests started/completed, data/inst
system.cpu.dtb.stage2_mmu.stage2_tlb.walker.walkRequestOrigin_Completed::Data            0                       # Table walker requests started/completed, data/inst
system.cpu.dtb.stage2_mmu.stage2_tlb.walker.walkRequestOrigin_Completed::Inst            0                       # Table walker requests started/completed, data/inst
system.cpu.dtb.stage2_mmu.stage2_tlb.walker.walkRequestOrigin_Completed::total            0                       # Table walker requests started/completed, data/inst
system.cpu.dtb.stage2_mmu.stage2_tlb.walker.walkRequestOrigin::total            0                       # Table walker requests started/completed, data/inst
system.cpu.dtb.stage2_mmu.stage2_tlb.walker.walks            0                       # Table walker walks requested
system.cpu.dtb.stage2_mmu.stage2_tlb.write_accesses            0                       # DTB write accesses
system.cpu.dtb.stage2_mmu.stage2_tlb.write_hits            0                       # DTB write hits
system.cpu.dtb.stage2_mmu.stage2_tlb.write_misses            0                       # DTB write misses
system.cpu.dtb.walker.walkRequestOrigin_Requested::Data            0                       # Table walker requests started/completed, data/inst
system.cpu.dtb.walker.walkRequestOrigin_Requested::Inst            0                       # Table walker requests started/completed, data/inst
system.cpu.dtb.walker.walkRequestOrigin_Requested::total            0                       # Table walker requests started/completed, data/inst
system.cpu.dtb.walker.walkRequestOrigin_Completed::Data            0                       # Table walker requests started/completed, data/inst
system.cpu.dtb.walker.walkRequestOrigin_Completed::Inst            0                       # Table walker requests started/completed, data/inst
system.cpu.dtb.walker.walkRequestOrigin_Completed::total            0                       # Table walker requests started/completed, data/inst
system.cpu.dtb.walker.walkRequestOrigin::total            0                       # Table walker requests started/completed, data/inst
system.cpu.dtb.walker.walks                         0                       # Table walker walks requested
system.cpu.dtb.write_accesses                       0                       # DTB write accesses
system.cpu.dtb.write_hits                           0                       # DTB write hits
system.cpu.dtb.write_misses                         0                       # DTB write misses
system.cpu.fetch2.amo_instructions                  0                       # Number of memory atomic instructions successfully decoded
system.cpu.fetch2.fp_instructions                   0                       # Number of floating point instructions successfully decoded
system.cpu.fetch2.int_instructions           48889474                       # Number of integer instructions successfully decoded
system.cpu.fetch2.load_instructions          19098274                       # Number of memory load instructions successfully decoded
system.cpu.fetch2.store_instructions         11369825                       # Number of memory store instructions successfully decoded
system.cpu.fetch2.vec_instructions                  0                       # Number of SIMD instructions successfully decoded
system.cpu.idleCycles                         4410109                       # Total number of cycles that the object has spent stopped
system.cpu.ipc                               0.838061                       # IPC: instructions per cycle
system.cpu.itb.accesses                             0                       # DTB accesses
system.cpu.itb.align_faults                         0                       # Number of TLB faults due to alignment restrictions
system.cpu.itb.domain_faults                        0                       # Number of TLB faults due to domain restrictions
system.cpu.itb.flush_entries                        0                       # Number of entries that have been flushed from TLB
system.cpu.itb.flush_tlb                            0                       # Number of times complete TLB was flushed
system.cpu.itb.flush_tlb_asid                       0                       # Number of times TLB was flushed by ASID
system.cpu.itb.flush_tlb_mva                        0                       # Number of times TLB was flushed by MVA
system.cpu.itb.flush_tlb_mva_asid                   0                       # Number of times TLB was flushed by MVA & ASID
system.cpu.itb.hits                                 0                       # DTB hits
system.cpu.itb.inst_accesses                        0                       # ITB inst accesses
system.cpu.itb.inst_hits                            0                       # ITB inst hits
system.cpu.itb.inst_misses                          0                       # ITB inst misses
system.cpu.itb.misses                               0                       # DTB misses
system.cpu.itb.perms_faults                         0                       # Number of TLB faults due to permissions restrictions
system.cpu.itb.prefetch_faults                      0                       # Number of TLB faults due to prefetch
system.cpu.itb.read_accesses                        0                       # DTB read accesses
system.cpu.itb.read_hits                            0                       # DTB read hits
system.cpu.itb.read_misses                          0                       # DTB read misses
system.cpu.itb.stage2_mmu.stage2_tlb.accesses            0                       # DTB accesses
system.cpu.itb.stage2_mmu.stage2_tlb.align_faults            0                       # Number of TLB faults due to alignment restrictions
system.cpu.itb.stage2_mmu.stage2_tlb.domain_faults            0                       # Number of TLB faults due to domain restrictions
system.cpu.itb.stage2_mmu.stage2_tlb.flush_entries            0                       # Number of entries that have been flushed from TLB
system.cpu.itb.stage2_mmu.stage2_tlb.flush_tlb            0                       # Number of times complete TLB was flushed
system.cpu.itb.stage2_mmu.stage2_tlb.flush_tlb_asid            0                       # Number of times TLB was flushed by ASID
system.cpu.itb.stage2_mmu.stage2_tlb.flush_tlb_mva            0                       # Number of times TLB was flushed by MVA
system.cpu.itb.stage2_mmu.stage2_tlb.flush_tlb_mva_asid            0                       # Number of times TLB was flushed by MVA & ASID
system.cpu.itb.stage2_mmu.stage2_tlb.hits            0                       # DTB hits
system.cpu.itb.stage2_mmu.stage2_tlb.inst_accesses            0                       # ITB inst accesses
system.cpu.itb.stage2_mmu.stage2_tlb.inst_hits            0                       # ITB inst hits
system.cpu.itb.stage2_mmu.stage2_tlb.inst_misses            0                       # ITB inst misses
system.cpu.itb.stage2_mmu.stage2_tlb.misses            0                       # DTB misses
system.cpu.itb.stage2_mmu.stage2_tlb.perms_faults            0                       # Number of TLB faults due to permissions restrictions
system.cpu.itb.stage2_mmu.stage2_tlb.prefetch_faults            0                       # Number of TLB faults due to prefetch
system.cpu.itb.stage2_mmu.stage2_tlb.read_accesses            0                       # DTB read accesses
system.cpu.itb.stage2_mmu.stage2_tlb.read_hits            0                       # DTB read hits
system.cpu.itb.stage2_mmu.stage2_tlb.read_misses            0                       # DTB read misses
system.cpu.itb.stage2_mmu.stage2_tlb.walker.walkRequestOrigin_Requested::Data            0                       # Table walker requests started/completed, data/inst
system.cpu.itb.stage2_mmu.stage2_tlb.walker.walkRequestOrigin_Requested::Inst            0                       # Table walker requests started/completed, data/inst
system.cpu.itb.stage2_mmu.stage2_tlb.walker.walkRequestOrigin_Requested::total            0                       # Table walker requests started/completed, data/inst
system.cpu.itb.stage2_mmu.stage2_tlb.walker.walkRequestOrigin_Completed::Data            0                       # Table walker requests started/completed, data/inst
system.cpu.itb.stage2_mmu.stage2_tlb.walker.walkRequestOrigin_Completed::Inst            0                       # Table walker requests started/completed, data/inst
system.cpu.itb.stage2_mmu.stage2_tlb.walker.walkRequestOrigin_Completed::total            0                       # Table walker requests started/completed, data/inst
system.cpu.itb.stage2_mmu.stage2_tlb.walker.walkRequestOrigin::total            0                       # Table walker requests started/completed, data/inst
system.cpu.itb.stage2_mmu.stage2_tlb.walker.walks            0                       # Table walker walks requested
system.cpu.itb.stage2_mmu.stage2_tlb.write_accesses            0                       # DTB write accesses
system.cpu.itb.stage2_mmu.stage2_tlb.write_hits            0                       # DTB write hits
system.cpu.itb.stage2_mmu.stage2_tlb.write_misses            0                       # DTB write misses
system.cpu.itb.walker.walkRequestOrigin_Requested::Data            0                       # Table walker requests started/completed, data/inst
system.cpu.itb.walker.walkRequestOrigin_Requested::Inst            0                       # Table walker requests started/completed, data/inst
system.cpu.itb.walker.walkRequestOrigin_Requested::total            0                       # Table walker requests started/completed, data/inst
system.cpu.itb.walker.walkRequestOrigin_Completed::Data            0                       # Table walker requests started/completed, data/inst
system.cpu.itb.walker.walkRequestOrigin_Completed::Inst            0                       # Table walker requests started/completed, data/inst
system.cpu.itb.walker.walkRequestOrigin_Completed::total            0                       # Table walker requests started/completed, data/inst
system.cpu.itb.walker.walkRequestOrigin::total            0                       # Table walker requests started/completed, data/inst
system.cpu.itb.walker.walks                         0                       # Table walker walks requested
system.cpu.itb.write_accesses                       0                       # DTB write accesses
system.cpu.itb.write_hits                           0                       # DTB write hits
system.cpu.itb.write_misses                         0                       # DTB write misses
system.cpu.numCycles                        119323052                       # number of cpu cycles simulated
system.cpu.numFetchSuspends                         0                       # Number of times Execute suspended instruction fetching
system.cpu.numWorkItemsCompleted                    0                       # number of work items this cpu completed
system.cpu.numWorkItemsStarted                      0                       # number of work items this cpu started
system.cpu.op_class_0::No_OpClass                   0      0.00%      0.00% # Class of committed instruction
system.cpu.op_class_0::IntAlu                71426331     65.45%     65.45% # Class of committed instruction
system.cpu.op_class_0::IntMult                 424190      0.39%     65.84% # Class of committed instruction
system.cpu.op_class_0::IntDiv                       0      0.00%     65.84% # Class of committed instruction
system.cpu.op_class_0::FloatAdd                     0      0.00%     65.84% # Class of committed instruction
system.cpu.op_class_0::FloatCmp                     0      0.00%     65.84% # Class of committed instruction
system.cpu.op_class_0::FloatCvt                     0      0.00%     65.84% # Class of committed instruction
system.cpu.op_class_0::FloatMult                    0      0.00%     65.84% # Class of committed instruction
system.cpu.op_class_0::FloatMultAcc                 0      0.00%     65.84% # Class of committed instruction
system.cpu.op_class_0::FloatDiv                     0      0.00%     65.84% # Class of committed instruction
system.cpu.op_class_0::FloatMisc                    0      0.00%     65.84% # Class of committed instruction
system.cpu.op_class_0::FloatSqrt                    0      0.00%     65.84% # Class of committed instruction
system.cpu.op_class_0::SimdAdd                      0      0.00%     65.84% # Class of committed instruction
system.cpu.op_class_0::SimdAddAcc                   0      0.00%     65.84% # Class of committed instruction
system.cpu.op_class_0::SimdAlu                      0      0.00%     65.84% # Class of committed instruction
system.cpu.op_class_0::SimdCmp                      0      0.00%     65.84% # Class of committed instruction
system.cpu.op_class_0::SimdCvt                      0      0.00%     65.84% # Class of committed instruction
system.cpu.op_class_0::SimdMisc                     0      0.00%     65.84% # Class of committed instruction
system.cpu.op_class_0::SimdMult                     0      0.00%     65.84% # Class of committed instruction
system.cpu.op_class_0::SimdMultAcc                  0      0.00%     65.84% # Class of committed instruction
system.cpu.op_class_0::SimdShift                    0      0.00%     65.84% # Class of committed instruction
system.cpu.op_class_0::SimdShiftAcc                 0      0.00%     65.84% # Class of committed instruction
system.cpu.op_class_0::SimdDiv                      0      0.00%     65.84% # Class of committed instruction
system.cpu.op_class_0::SimdSqrt                     0      0.00%     65.84% # Class of committed instruction
system.cpu.op_class_0::SimdFloatAdd                 0      0.00%     65.84% # Class of committed instruction
system.cpu.op_class_0::SimdFloatAlu                 0      0.00%     65.84% # Class of committed instruction
system.cpu.op_class_0::SimdFloatCmp                 0      0.00%     65.84% # Class of committed instruction
system.cpu.op_class_0::SimdFloatCvt                 0      0.00%     65.84% # Class of committed instruction
system.cpu.op_class_0::SimdFloatDiv                 0      0.00%     65.84% # Class of committed instruction
system.cpu.op_class_0::SimdFloatMisc                0      0.00%     65.84% # Class of committed instruction
system.cpu.op_class_0::SimdFloatMult                0      0.00%     65.84% # Class of committed instruction
system.cpu.op_class_0::SimdFloatMultAcc             0      0.00%     65.84% # Class of committed instruction
system.cpu.op_class_0::SimdFloatSqrt                0      0.00%     65.84% # Class of committed instruction
system.cpu.op_class_0::SimdReduceAdd                0      0.00%     65.84% # Class of committed instruction
system.cpu.op_class_0::SimdReduceAlu                0      0.00%     65.84% # Class of committed instruction
system.cpu.op_class_0::SimdReduceCmp                0      0.00%     65.84% # Class of committed instruction
system.cpu.op_class_0::SimdFloatReduceAdd            0      0.00%     65.84% # Class of committed instruction
system.cpu.op_class_0::SimdFloatReduceCmp            0      0.00%     65.84% # Class of committed instruction
system.cpu.op_class_0::SimdAes                      0      0.00%     65.84% # Class of committed instruction
system.cpu.op_class_0::SimdAesMix                   0      0.00%     65.84% # Class of committed instruction
system.cpu.op_class_0::SimdSha1Hash                 0      0.00%     65.84% # Class of committed instruction
system.cpu.op_class_0::SimdSha1Hash2                0      0.00%     65.84% # Class of committed instruction
system.cpu.op_class_0::SimdSha256Hash               0      0.00%     65.84% # Class of committed instruction
system.cpu.op_class_0::SimdSha256Hash2              0      0.00%     65.84% # Class of committed instruction
system.cpu.op_class_0::SimdShaSigma2                0      0.00%     65.84% # Class of committed instruction
system.cpu.op_class_0::SimdShaSigma3                0      0.00%     65.84% # Class of committed instruction
system.cpu.op_class_0::SimdPredAlu                  0      0.00%     65.84% # Class of committed instruction
system.cpu.op_class_0::MemRead               21632583     19.82%     85.67% # Class of committed instruction
system.cpu.op_class_0::MemWrite              15640801     14.33%    100.00% # Class of committed instruction
system.cpu.op_class_0::FloatMemRead                 0      0.00%    100.00% # Class of committed instruction
system.cpu.op_class_0::FloatMemWrite                0      0.00%    100.00% # Class of committed instruction
system.cpu.op_class_0::IprAccess                    0      0.00%    100.00% # Class of committed instruction
system.cpu.op_class_0::InstPrefetch                 0      0.00%    100.00% # Class of committed instruction
system.cpu.op_class_0::total                109123905                       # Class of committed instruction
system.cpu.tickCycles                       114912943                       # Number of cycles that the object actually ticked
system.cpu.workload.numSyscalls                    90                       # Number of system calls
system.membus.snoop_filter.hit_multi_requests            0                       # Number of requests hitting in the snoop filter with multiple (>1) holders of the requested data.
system.membus.snoop_filter.hit_multi_snoops            0                       # Number of snoops hitting in the snoop filter with multiple (>1) holders of the requested data.
system.membus.snoop_filter.hit_single_requests        26506                       # Number of requests hitting in the snoop filter with a single holder of the requested data.
system.membus.snoop_filter.hit_single_snoops            0                       # Number of snoops hitting in the snoop filter with a single holder of the requested data.
system.membus.snoop_filter.tot_requests         69833                       # Total number of requests made to the snoop filter.
system.membus.snoop_filter.tot_snoops               0                       # Total number of snoops made to the snoop filter.
system.tol2bus.snoop_filter.hit_multi_requests           92                       # Number of requests hitting in the snoop filter with multiple (>1) holders of the requested data.
system.tol2bus.snoop_filter.hit_multi_snoops            5                       # Number of snoops hitting in the snoop filter with multiple (>1) holders of the requested data.
system.tol2bus.snoop_filter.hit_single_requests        59261                       # Number of requests hitting in the snoop filter with a single holder of the requested data.
system.tol2bus.snoop_filter.hit_single_snoops          442                       # Number of snoops hitting in the snoop filter with a single holder of the requested data.
system.tol2bus.snoop_filter.tot_requests       119434                       # Total number of requests made to the snoop filter.
system.tol2bus.snoop_filter.tot_snoops            447                       # Total number of snoops made to the snoop filter.
system.membus.pwrStateResidencyTicks::UNDEFINED  74576907500                       # Cumulative time (in ticks) in various power states
system.membus.trans_dist::ReadResp               4299                       # Transaction distribution
system.membus.trans_dist::WritebackDirty        26402                       # Transaction distribution
system.membus.trans_dist::CleanEvict              103                       # Transaction distribution
system.membus.trans_dist::ReadExReq             39029                       # Transaction distribution
system.membus.trans_dist::ReadExResp            39029                       # Transaction distribution
system.membus.trans_dist::ReadSharedReq          4299                       # Transaction distribution
system.membus.pkt_count_system.l2.mem_side::system.mem_ctrls.port       113161                       # Packet count per connected master and slave (bytes)
system.membus.pkt_count::total                 113161                       # Packet count per connected master and slave (bytes)
system.membus.pkt_size_system.l2.mem_side::system.mem_ctrls.port      4462720                       # Cumulative packet size per connected master and slave (bytes)
system.membus.pkt_size::total                 4462720                       # Cumulative packet size per connected master and slave (bytes)
system.membus.snoops                                0                       # Total snoops (count)
system.membus.snoopTraffic                          0                       # Total snoop traffic (bytes)
system.membus.snoop_fanout::samples             43328                       # Request fanout histogram
system.membus.snoop_fanout::mean                    0                       # Request fanout histogram
system.membus.snoop_fanout::stdev                   0                       # Request fanout histogram
system.membus.snoop_fanout::underflows              0      0.00%      0.00% # Request fanout histogram
system.membus.snoop_fanout::0                   43328    100.00%    100.00% # Request fanout histogram
system.membus.snoop_fanout::1                       0      0.00%    100.00% # Request fanout histogram
system.membus.snoop_fanout::overflows               0      0.00%    100.00% # Request fanout histogram
system.membus.snoop_fanout::min_value               0                       # Request fanout histogram
system.membus.snoop_fanout::max_value               0                       # Request fanout histogram
system.membus.snoop_fanout::total               43328                       # Request fanout histogram
system.membus.respLayer1.occupancy          232340750                       # Layer occupancy (ticks)
system.membus.respLayer1.utilization              0.3                       # Layer utilization (%)
system.membus.reqLayer0.occupancy           202526000                       # Layer occupancy (ticks)
system.membus.reqLayer0.utilization               0.3                       # Layer utilization (%)
system.tol2bus.pwrStateResidencyTicks::UNDEFINED  74576907500                       # Cumulative time (in ticks) in various power states
system.tol2bus.trans_dist::ReadResp             21147                       # Transaction distribution
system.tol2bus.trans_dist::WritebackDirty        78650                       # Transaction distribution
system.tol2bus.trans_dist::WritebackClean           78                       # Transaction distribution
system.tol2bus.trans_dist::CleanEvict            7480                       # Transaction distribution
system.tol2bus.trans_dist::ReadExReq            39031                       # Transaction distribution
system.tol2bus.trans_dist::ReadExResp           39031                       # Transaction distribution
system.tol2bus.trans_dist::ReadCleanReq           488                       # Transaction distribution
system.tol2bus.trans_dist::ReadSharedReq        20659                       # Transaction distribution
system.tol2bus.pkt_count_system.cpu.icache.mem_side::system.l2.cpu_side         1054                       # Packet count per connected master and slave (bytes)
system.tol2bus.pkt_count_system.cpu.dcache.mem_side::system.l2.cpu_side       178558                       # Packet count per connected master and slave (bytes)
system.tol2bus.pkt_count::total                179612                       # Packet count per connected master and slave (bytes)
system.tol2bus.pkt_size_system.cpu.icache.mem_side::system.l2.cpu_side        36224                       # Cumulative packet size per connected master and slave (bytes)
system.tol2bus.pkt_size_system.cpu.dcache.mem_side::system.l2.cpu_side      7164032                       # Cumulative packet size per connected master and slave (bytes)
system.tol2bus.pkt_size::total                7200256                       # Cumulative packet size per connected master and slave (bytes)
system.tol2bus.snoops                           26952                       # Total snoops (count)
system.tol2bus.snoopTraffic                   1689728                       # Total snoop traffic (bytes)
system.tol2bus.snoop_fanout::samples            87130                       # Request fanout histogram
system.tol2bus.snoop_fanout::mean            0.006301                       # Request fanout histogram
system.tol2bus.snoop_fanout::stdev           0.079850                       # Request fanout histogram
system.tol2bus.snoop_fanout::underflows             0      0.00%      0.00% # Request fanout histogram
system.tol2bus.snoop_fanout::0                  86586     99.38%     99.38% # Request fanout histogram
system.tol2bus.snoop_fanout::1                    539      0.62%     99.99% # Request fanout histogram
system.tol2bus.snoop_fanout::2                      5      0.01%    100.00% # Request fanout histogram
system.tol2bus.snoop_fanout::overflows              0      0.00%    100.00% # Request fanout histogram
system.tol2bus.snoop_fanout::min_value              0                       # Request fanout histogram
system.tol2bus.snoop_fanout::max_value              2                       # Request fanout histogram
system.tol2bus.snoop_fanout::total              87130                       # Request fanout histogram
system.tol2bus.reqLayer0.occupancy          140053750                       # Layer occupancy (ticks)
system.tol2bus.reqLayer0.utilization              0.2                       # Layer utilization (%)
system.tol2bus.respLayer1.occupancy         111922494                       # Layer occupancy (ticks)
system.tol2bus.respLayer1.utilization             0.2                       # Layer utilization (%)
system.tol2bus.respLayer0.occupancy            915000                       # Layer occupancy (ticks)
system.tol2bus.respLayer0.utilization             0.0                       # Layer utilization (%)
system.voltage_domain.voltage                       1                       # Voltage in Volts
system.clk_domain.clock                          1000                       # Clock period in ticks
system.l2.pwrStateResidencyTicks::UNDEFINED  74576907500                       # Cumulative time (in ticks) in various power states
system.l2.demand_hits::.cpu.inst                   22                       # number of demand (read+write) hits
system.l2.demand_hits::.cpu.data                16822                       # number of demand (read+write) hits
system.l2.demand_hits::total                    16844                       # number of demand (read+write) hits
system.l2.overall_hits::.cpu.inst                  22                       # number of overall hits
system.l2.overall_hits::.cpu.data               16822                       # number of overall hits
system.l2.overall_hits::total                   16844                       # number of overall hits
system.l2.demand_misses::.cpu.inst                466                       # number of demand (read+write) misses
system.l2.demand_misses::.cpu.data              42868                       # number of demand (read+write) misses
system.l2.demand_misses::total                  43334                       # number of demand (read+write) misses
system.l2.overall_misses::.cpu.inst               466                       # number of overall misses
system.l2.overall_misses::.cpu.data             42868                       # number of overall misses
system.l2.overall_misses::total                 43334                       # number of overall misses
system.l2.demand_miss_latency::.cpu.inst     38438750                       # number of demand (read+write) miss cycles
system.l2.demand_miss_latency::.cpu.data   3693248750                       # number of demand (read+write) miss cycles
system.l2.demand_miss_latency::total       3731687500                       # number of demand (read+write) miss cycles
system.l2.overall_miss_latency::.cpu.inst     38438750                       # number of overall miss cycles
system.l2.overall_miss_latency::.cpu.data   3693248750                       # number of overall miss cycles
system.l2.overall_miss_latency::total      3731687500                       # number of overall miss cycles
system.l2.demand_accesses::.cpu.inst              488                       # number of demand (read+write) accesses
system.l2.demand_accesses::.cpu.data            59690                       # number of demand (read+write) accesses
system.l2.demand_accesses::total                60178                       # number of demand (read+write) accesses
system.l2.overall_accesses::.cpu.inst             488                       # number of overall (read+write) accesses
system.l2.overall_accesses::.cpu.data           59690                       # number of overall (read+write) accesses
system.l2.overall_accesses::total               60178                       # number of overall (read+write) accesses
system.l2.demand_miss_rate::.cpu.inst        0.954918                       # miss rate for demand accesses
system.l2.demand_miss_rate::.cpu.data        0.718177                       # miss rate for demand accesses
system.l2.demand_miss_rate::total            0.720097                       # miss rate for demand accesses
system.l2.overall_miss_rate::.cpu.inst       0.954918                       # miss rate for overall accesses
system.l2.overall_miss_rate::.cpu.data       0.718177                       # miss rate for overall accesses
system.l2.overall_miss_rate::total           0.720097                       # miss rate for overall accesses
system.l2.demand_avg_miss_latency::.cpu.inst 82486.587983                       # average overall miss latency
system.l2.demand_avg_miss_latency::.cpu.data 86153.978492                       # average overall miss latency
system.l2.demand_avg_miss_latency::total 86114.540546                       # average overall miss latency
system.l2.overall_avg_miss_latency::.cpu.inst 82486.587983                       # average overall miss latency
system.l2.overall_avg_miss_latency::.cpu.data 86153.978492                       # average overall miss latency
system.l2.overall_avg_miss_latency::total 86114.540546                       # average overall miss latency
system.l2.blocked_cycles::no_mshrs                  0                       # number of cycles access was blocked
system.l2.blocked_cycles::no_targets                0                       # number of cycles access was blocked
system.l2.blocked::no_mshrs                         0                       # number of cycles access was blocked
system.l2.blocked::no_targets                       0                       # number of cycles access was blocked
system.l2.avg_blocked_cycles::no_mshrs            nan                       # average number of cycles each access was blocked
system.l2.avg_blocked_cycles::no_targets          nan                       # average number of cycles each access was blocked
system.l2.writebacks::.writebacks               26402                       # number of writebacks
system.l2.writebacks::total                     26402                       # number of writebacks
system.l2.demand_mshr_hits::.cpu.data               6                       # number of demand (read+write) MSHR hits
system.l2.demand_mshr_hits::total                   6                       # number of demand (read+write) MSHR hits
system.l2.overall_mshr_hits::.cpu.data              6                       # number of overall MSHR hits
system.l2.overall_mshr_hits::total                  6                       # number of overall MSHR hits
system.l2.demand_mshr_misses::.cpu.inst           466                       # number of demand (read+write) MSHR misses
system.l2.demand_mshr_misses::.cpu.data         42862                       # number of demand (read+write) MSHR misses
system.l2.demand_mshr_misses::total             43328                       # number of demand (read+write) MSHR misses
system.l2.overall_mshr_misses::.cpu.inst          466                       # number of overall MSHR misses
system.l2.overall_mshr_misses::.cpu.data        42862                       # number of overall MSHR misses
system.l2.overall_mshr_misses::total            43328                       # number of overall MSHR misses
system.l2.demand_mshr_miss_latency::.cpu.inst     32485875                       # number of demand (read+write) MSHR miss cycles
system.l2.demand_mshr_miss_latency::.cpu.data   3145463375                       # number of demand (read+write) MSHR miss cycles
system.l2.demand_mshr_miss_latency::total   3177949250                       # number of demand (read+write) MSHR miss cycles
system.l2.overall_mshr_miss_latency::.cpu.inst     32485875                       # number of overall MSHR miss cycles
system.l2.overall_mshr_miss_latency::.cpu.data   3145463375                       # number of overall MSHR miss cycles
system.l2.overall_mshr_miss_latency::total   3177949250                       # number of overall MSHR miss cycles
system.l2.demand_mshr_miss_rate::.cpu.inst     0.954918                       # mshr miss rate for demand accesses
system.l2.demand_mshr_miss_rate::.cpu.data     0.718077                       # mshr miss rate for demand accesses
system.l2.demand_mshr_miss_rate::total       0.719997                       # mshr miss rate for demand accesses
system.l2.overall_mshr_miss_rate::.cpu.inst     0.954918                       # mshr miss rate for overall accesses
system.l2.overall_mshr_miss_rate::.cpu.data     0.718077                       # mshr miss rate for overall accesses
system.l2.overall_mshr_miss_rate::total      0.719997                       # mshr miss rate for overall accesses
system.l2.demand_avg_mshr_miss_latency::.cpu.inst 69712.178112                       # average overall mshr miss latency
system.l2.demand_avg_mshr_miss_latency::.cpu.data 73385.828356                       # average overall mshr miss latency
system.l2.demand_avg_mshr_miss_latency::total 73346.317624                       # average overall mshr miss latency
system.l2.overall_avg_mshr_miss_latency::.cpu.inst 69712.178112                       # average overall mshr miss latency
system.l2.overall_avg_mshr_miss_latency::.cpu.data 73385.828356                       # average overall mshr miss latency
system.l2.overall_avg_mshr_miss_latency::total 73346.317624                       # average overall mshr miss latency
system.l2.replacements                          26952                       # number of replacements
system.l2.WritebackDirty_hits::.writebacks        52248                       # number of WritebackDirty hits
system.l2.WritebackDirty_hits::total            52248                       # number of WritebackDirty hits
system.l2.WritebackDirty_accesses::.writebacks        52248                       # number of WritebackDirty accesses(hits+misses)
system.l2.WritebackDirty_accesses::total        52248                       # number of WritebackDirty accesses(hits+misses)
system.l2.WritebackClean_hits::.writebacks           72                       # number of WritebackClean hits
system.l2.WritebackClean_hits::total               72                       # number of WritebackClean hits
system.l2.WritebackClean_accesses::.writebacks           72                       # number of WritebackClean accesses(hits+misses)
system.l2.WritebackClean_accesses::total           72                       # number of WritebackClean accesses(hits+misses)
system.l2.ReadExReq_hits::.cpu.data                 2                       # number of ReadExReq hits
system.l2.ReadExReq_hits::total                     2                       # number of ReadExReq hits
system.l2.ReadExReq_misses::.cpu.data           39029                       # number of ReadExReq misses
system.l2.ReadExReq_misses::total               39029                       # number of ReadExReq misses
system.l2.ReadExReq_miss_latency::.cpu.data   3333891875                       # number of ReadExReq miss cycles
system.l2.ReadExReq_miss_latency::total    3333891875                       # number of ReadExReq miss cycles
system.l2.ReadExReq_accesses::.cpu.data         39031                       # number of ReadExReq accesses(hits+misses)
system.l2.ReadExReq_accesses::total             39031                       # number of ReadExReq accesses(hits+misses)
system.l2.ReadExReq_miss_rate::.cpu.data     0.999949                       # miss rate for ReadExReq accesses
system.l2.ReadExReq_miss_rate::total         0.999949                       # miss rate for ReadExReq accesses
system.l2.ReadExReq_avg_miss_latency::.cpu.data 85420.888954                       # average ReadExReq miss latency
system.l2.ReadExReq_avg_miss_latency::total 85420.888954                       # average ReadExReq miss latency
system.l2.ReadExReq_mshr_misses::.cpu.data        39029                       # number of ReadExReq MSHR misses
system.l2.ReadExReq_mshr_misses::total          39029                       # number of ReadExReq MSHR misses
system.l2.ReadExReq_mshr_miss_latency::.cpu.data   2835450625                       # number of ReadExReq MSHR miss cycles
system.l2.ReadExReq_mshr_miss_latency::total   2835450625                       # number of ReadExReq MSHR miss cycles
system.l2.ReadExReq_mshr_miss_rate::.cpu.data     0.999949                       # mshr miss rate for ReadExReq accesses
system.l2.ReadExReq_mshr_miss_rate::total     0.999949                       # mshr miss rate for ReadExReq accesses
system.l2.ReadExReq_avg_mshr_miss_latency::.cpu.data 72649.840503                       # average ReadExReq mshr miss latency
system.l2.ReadExReq_avg_mshr_miss_latency::total 72649.840503                       # average ReadExReq mshr miss latency
system.l2.ReadCleanReq_hits::.cpu.inst             22                       # number of ReadCleanReq hits
system.l2.ReadCleanReq_hits::total                 22                       # number of ReadCleanReq hits
system.l2.ReadCleanReq_misses::.cpu.inst          466                       # number of ReadCleanReq misses
system.l2.ReadCleanReq_misses::total              466                       # number of ReadCleanReq misses
system.l2.ReadCleanReq_miss_latency::.cpu.inst     38438750                       # number of ReadCleanReq miss cycles
system.l2.ReadCleanReq_miss_latency::total     38438750                       # number of ReadCleanReq miss cycles
system.l2.ReadCleanReq_accesses::.cpu.inst          488                       # number of ReadCleanReq accesses(hits+misses)
system.l2.ReadCleanReq_accesses::total            488                       # number of ReadCleanReq accesses(hits+misses)
system.l2.ReadCleanReq_miss_rate::.cpu.inst     0.954918                       # miss rate for ReadCleanReq accesses
system.l2.ReadCleanReq_miss_rate::total      0.954918                       # miss rate for ReadCleanReq accesses
system.l2.ReadCleanReq_avg_miss_latency::.cpu.inst 82486.587983                       # average ReadCleanReq miss latency
system.l2.ReadCleanReq_avg_miss_latency::total 82486.587983                       # average ReadCleanReq miss latency
system.l2.ReadCleanReq_mshr_misses::.cpu.inst          466                       # number of ReadCleanReq MSHR misses
system.l2.ReadCleanReq_mshr_misses::total          466                       # number of ReadCleanReq MSHR misses
system.l2.ReadCleanReq_mshr_miss_latency::.cpu.inst     32485875                       # number of ReadCleanReq MSHR miss cycles
system.l2.ReadCleanReq_mshr_miss_latency::total     32485875                       # number of ReadCleanReq MSHR miss cycles
system.l2.ReadCleanReq_mshr_miss_rate::.cpu.inst     0.954918                       # mshr miss rate for ReadCleanReq accesses
system.l2.ReadCleanReq_mshr_miss_rate::total     0.954918                       # mshr miss rate for ReadCleanReq accesses
system.l2.ReadCleanReq_avg_mshr_miss_latency::.cpu.inst 69712.178112                       # average ReadCleanReq mshr miss latency
system.l2.ReadCleanReq_avg_mshr_miss_latency::total 69712.178112                       # average ReadCleanReq mshr miss latency
system.l2.ReadSharedReq_hits::.cpu.data         16820                       # number of ReadSharedReq hits
system.l2.ReadSharedReq_hits::total             16820                       # number of ReadSharedReq hits
system.l2.ReadSharedReq_misses::.cpu.data         3839                       # number of ReadSharedReq misses
system.l2.ReadSharedReq_misses::total            3839                       # number of ReadSharedReq misses
system.l2.ReadSharedReq_miss_latency::.cpu.data    359356875                       # number of ReadSharedReq miss cycles
system.l2.ReadSharedReq_miss_latency::total    359356875                       # number of ReadSharedReq miss cycles
system.l2.ReadSharedReq_accesses::.cpu.data        20659                       # number of ReadSharedReq accesses(hits+misses)
system.l2.ReadSharedReq_accesses::total         20659                       # number of ReadSharedReq accesses(hits+misses)
system.l2.ReadSharedReq_miss_rate::.cpu.data     0.185827                       # miss rate for ReadSharedReq accesses
system.l2.ReadSharedReq_miss_rate::total     0.185827                       # miss rate for ReadSharedReq accesses
system.l2.ReadSharedReq_avg_miss_latency::.cpu.data 93606.896327                       # average ReadSharedReq miss latency
system.l2.ReadSharedReq_avg_miss_latency::total 93606.896327                       # average ReadSharedReq miss latency
system.l2.ReadSharedReq_mshr_hits::.cpu.data            6                       # number of ReadSharedReq MSHR hits
system.l2.ReadSharedReq_mshr_hits::total            6                       # number of ReadSharedReq MSHR hits
system.l2.ReadSharedReq_mshr_misses::.cpu.data         3833                       # number of ReadSharedReq MSHR misses
system.l2.ReadSharedReq_mshr_misses::total         3833                       # number of ReadSharedReq MSHR misses
system.l2.ReadSharedReq_mshr_miss_latency::.cpu.data    310012750                       # number of ReadSharedReq MSHR miss cycles
system.l2.ReadSharedReq_mshr_miss_latency::total    310012750                       # number of ReadSharedReq MSHR miss cycles
system.l2.ReadSharedReq_mshr_miss_rate::.cpu.data     0.185537                       # mshr miss rate for ReadSharedReq accesses
system.l2.ReadSharedReq_mshr_miss_rate::total     0.185537                       # mshr miss rate for ReadSharedReq accesses
system.l2.ReadSharedReq_avg_mshr_miss_latency::.cpu.data 80879.924341                       # average ReadSharedReq mshr miss latency
system.l2.ReadSharedReq_avg_mshr_miss_latency::total 80879.924341                       # average ReadSharedReq mshr miss latency
system.l2.tags.pwrStateResidencyTicks::UNDEFINED  74576907500                       # Cumulative time (in ticks) in various power states
system.l2.tags.tagsinuse                 15624.323248                       # Cycle average of tags in use
system.l2.tags.total_refs                      119336                       # Total number of references to valid blocks.
system.l2.tags.sampled_refs                     43336                       # Sample count of references to valid blocks.
system.l2.tags.avg_refs                      2.753738                       # Average number of references to valid blocks.
system.l2.tags.warmup_cycle                     78000                       # Cycle when the warmup percentage was hit.
system.l2.tags.occ_blocks::.writebacks       4.409165                       # Average occupied blocks per requestor
system.l2.tags.occ_blocks::.cpu.inst        47.334229                       # Average occupied blocks per requestor
system.l2.tags.occ_blocks::.cpu.data     15572.579854                       # Average occupied blocks per requestor
system.l2.tags.occ_percent::.writebacks      0.000269                       # Average percentage of cache occupancy
system.l2.tags.occ_percent::.cpu.inst        0.002889                       # Average percentage of cache occupancy
system.l2.tags.occ_percent::.cpu.data        0.950475                       # Average percentage of cache occupancy
system.l2.tags.occ_percent::total            0.953633                       # Average percentage of cache occupancy
system.l2.tags.occ_task_id_blocks::1024         16384                       # Occupied blocks per task id
system.l2.tags.age_task_id_blocks_1024::0            8                       # Occupied blocks per task id
system.l2.tags.age_task_id_blocks_1024::1           76                       # Occupied blocks per task id
system.l2.tags.age_task_id_blocks_1024::2          415                       # Occupied blocks per task id
system.l2.tags.age_task_id_blocks_1024::3         3726                       # Occupied blocks per task id
system.l2.tags.age_task_id_blocks_1024::4        12159                       # Occupied blocks per task id
system.l2.tags.occ_task_id_percent::1024            1                       # Percentage of cache occupancy per task id
system.l2.tags.tag_accesses                    998072                       # Number of tag accesses
system.l2.tags.data_accesses                   998072                       # Number of data accesses
system.cpu_voltage_domain.voltage                   1                       # Voltage in Volts
system.mem_ctrls.pwrStateResidencyTicks::UNDEFINED  74576907500                       # Cumulative time (in ticks) in various power states
system.mem_ctrls.bytes_read::.cpu.inst          29824                       # Number of bytes read from this memory
system.mem_ctrls.bytes_read::.cpu.data        2743168                       # Number of bytes read from this memory
system.mem_ctrls.bytes_read::total            2772992                       # Number of bytes read from this memory
system.mem_ctrls.bytes_inst_read::.cpu.inst        29824                       # Number of instructions bytes read from this memory
system.mem_ctrls.bytes_inst_read::total         29824                       # Number of instructions bytes read from this memory
system.mem_ctrls.bytes_written::.writebacks      1689728                       # Number of bytes written to this memory
system.mem_ctrls.bytes_written::total         1689728                       # Number of bytes written to this memory
system.mem_ctrls.num_reads::.cpu.inst             466                       # Number of read requests responded to by this memory
system.mem_ctrls.num_reads::.cpu.data           42862                       # Number of read requests responded to by this memory
system.mem_ctrls.num_reads::total               43328                       # Number of read requests responded to by this memory
system.mem_ctrls.num_writes::.writebacks        26402                       # Number of write requests responded to by this memory
system.mem_ctrls.num_writes::total              26402                       # Number of write requests responded to by this memory
system.mem_ctrls.bw_read::.cpu.inst            399909                       # Total read bandwidth from this memory (bytes/s)
system.mem_ctrls.bw_read::.cpu.data          36783075                       # Total read bandwidth from this memory (bytes/s)
system.mem_ctrls.bw_read::total              37182985                       # Total read bandwidth from this memory (bytes/s)
system.mem_ctrls.bw_inst_read::.cpu.inst       399909                       # Instruction read bandwidth from this memory (bytes/s)
system.mem_ctrls.bw_inst_read::total           399909                       # Instruction read bandwidth from this memory (bytes/s)
system.mem_ctrls.bw_write::.writebacks       22657523                       # Write bandwidth from this memory (bytes/s)
system.mem_ctrls.bw_write::total             22657523                       # Write bandwidth from this memory (bytes/s)
system.mem_ctrls.bw_total::.writebacks       22657523                       # Total bandwidth to/from this memory (bytes/s)
system.mem_ctrls.bw_total::.cpu.inst           399909                       # Total bandwidth to/from this memory (bytes/s)
system.mem_ctrls.bw_total::.cpu.data         36783075                       # Total bandwidth to/from this memory (bytes/s)
system.mem_ctrls.bw_total::total             59840508                       # Total bandwidth to/from this memory (bytes/s)
system.mem_ctrls.avgPriority_.writebacks::samples     26402.00                       # Average QoS priority value for accepted requests
system.mem_ctrls.avgPriority_.cpu.inst::samples       466.00                       # Average QoS priority value for accepted requests
system.mem_ctrls.avgPriority_.cpu.data::samples     42856.00                       # Average QoS priority value for accepted requests
system.mem_ctrls.priorityMinLatency      0.000000018750                       # per QoS priority minimum request to response latency (s)
system.mem_ctrls.priorityMaxLatency      0.002004575000                       # per QoS priority maximum request to response latency (s)
system.mem_ctrls.numReadWriteTurnArounds         1495                       # Number of turnarounds from READ to WRITE
system.mem_ctrls.numWriteReadTurnArounds         1495                       # Number of turnarounds from WRITE to READ
system.mem_ctrls.numStayReadState              131889                       # Number of times bus staying in READ state
system.mem_ctrls.numStayWriteState              24925                       # Number of times bus staying in WRITE state
system.mem_ctrls.readReqs                       43328                       # Number of read requests accepted
system.mem_ctrls.writeReqs                      26402                       # Number of write requests accepted
system.mem_ctrls.readBursts                     43328                       # Number of DRAM read bursts, including those serviced by the write queue
system.mem_ctrls.writeBursts                    26402                       # Number of DRAM write bursts, including those merged in the write queue
system.mem_ctrls.servicedByWrQ                      6                       # Number of DRAM read bursts serviced by the write queue
system.mem_ctrls.mergedWrBursts                     0                       # Number of DRAM write bursts merged with an existing one
system.mem_ctrls.neitherReadNorWriteReqs            0                       # Number of requests that are neither read nor write
system.mem_ctrls.perBankRdBursts::0              2698                       # Per bank write bursts
system.mem_ctrls.perBankRdBursts::1              2712                       # Per bank write bursts
system.mem_ctrls.perBankRdBursts::2              2717                       # Per bank write bursts
system.mem_ctrls.perBankRdBursts::3              2708                       # Per bank write bursts
system.mem_ctrls.perBankRdBursts::4              2706                       # Per bank write bursts
system.mem_ctrls.perBankRdBursts::5              2787                       # Per bank write bursts
system.mem_ctrls.perBankRdBursts::6              2700                       # Per bank write bursts
system.mem_ctrls.perBankRdBursts::7              2822                       # Per bank write bursts
system.mem_ctrls.perBankRdBursts::8              2697                       # Per bank write bursts
system.mem_ctrls.perBankRdBursts::9              2695                       # Per bank write bursts
system.mem_ctrls.perBankRdBursts::10             2718                       # Per bank write bursts
system.mem_ctrls.perBankRdBursts::11             2681                       # Per bank write bursts
system.mem_ctrls.perBankRdBursts::12             2654                       # Per bank write bursts
system.mem_ctrls.perBankRdBursts::13             2648                       # Per bank write bursts
system.mem_ctrls.perBankRdBursts::14             2654                       # Per bank write bursts
system.mem_ctrls.perBankRdBursts::15             2725                       # Per bank write bursts
system.mem_ctrls.perBankWrBursts::0              1640                       # Per bank write bursts
system.mem_ctrls.perBankWrBursts::1              1647                       # Per bank write bursts
system.mem_ctrls.perBankWrBursts::2              1630                       # Per bank write bursts
system.mem_ctrls.perBankWrBursts::3              1631                       # Per bank write bursts
system.mem_ctrls.perBankWrBursts::4              1615                       # Per bank write bursts
system.mem_ctrls.perBankWrBursts::5              1715                       # Per bank write bursts
system.mem_ctrls.perBankWrBursts::6              1627                       # Per bank write bursts
system.mem_ctrls.perBankWrBursts::7              1762                       # Per bank write bursts
system.mem_ctrls.perBankWrBursts::8              1641                       # Per bank write bursts
system.mem_ctrls.perBankWrBursts::9              1649                       # Per bank write bursts
system.mem_ctrls.perBankWrBursts::10             1641                       # Per bank write bursts
system.mem_ctrls.perBankWrBursts::11             1636                       # Per bank write bursts
system.mem_ctrls.perBankWrBursts::12             1622                       # Per bank write bursts
system.mem_ctrls.perBankWrBursts::13             1621                       # Per bank write bursts
system.mem_ctrls.perBankWrBursts::14             1625                       # Per bank write bursts
system.mem_ctrls.perBankWrBursts::15             1680                       # Per bank write bursts
system.mem_ctrls.avgRdQLen                       1.00                       # Average read queue length when enqueuing
system.mem_ctrls.avgWrQLen                      22.28                       # Average write queue length when enqueuing
system.mem_ctrls.totQLat                    461086625                       # Total ticks spent queuing
system.mem_ctrls.totBusLat                  216610000                       # Total ticks spent in databus transfers
system.mem_ctrls.totMemAccLat              1273374125                       # Total ticks spent from burst creation until serviced by the DRAM
system.mem_ctrls.avgQLat                     10643.24                       # Average queueing delay per DRAM burst
system.mem_ctrls.avgBusLat                    5000.00                       # Average bus latency per DRAM burst
system.mem_ctrls.avgMemAccLat                29393.24                       # Average memory access latency per DRAM burst
system.mem_ctrls.numRdRetry                         0                       # Number of times read queue was full causing retry
system.mem_ctrls.numWrRetry                         0                       # Number of times write queue was full causing retry
system.mem_ctrls.readRowHits                    25683                       # Number of row buffer hits during reads
system.mem_ctrls.writeRowHits                   19638                       # Number of row buffer hits during writes
system.mem_ctrls.readRowHitRate                 59.28                       # Row buffer hit rate for reads
system.mem_ctrls.writeRowHitRate                74.38                       # Row buffer hit rate for writes
system.mem_ctrls.readPktSize::0                     0                       # Read request sizes (log2)
system.mem_ctrls.readPktSize::1                     0                       # Read request sizes (log2)
system.mem_ctrls.readPktSize::2                     0                       # Read request sizes (log2)
system.mem_ctrls.readPktSize::3                     0                       # Read request sizes (log2)
system.mem_ctrls.readPktSize::4                     0                       # Read request sizes (log2)
system.mem_ctrls.readPktSize::5                     0                       # Read request sizes (log2)
system.mem_ctrls.readPktSize::6                 43328                       # Read request sizes (log2)
system.mem_ctrls.writePktSize::0                    0                       # Write request sizes (log2)
system.mem_ctrls.writePktSize::1                    0                       # Write request sizes (log2)
system.mem_ctrls.writePktSize::2                    0                       # Write request sizes (log2)
system.mem_ctrls.writePktSize::3                    0                       # Write request sizes (log2)
system.mem_ctrls.writePktSize::4                    0                       # Write request sizes (log2)
system.mem_ctrls.writePktSize::5                    0                       # Write request sizes (log2)
system.mem_ctrls.writePktSize::6                26402                       # Write request sizes (log2)
system.mem_ctrls.rdQLenPdf::0                   43243                       # What read queue length does an incoming req see
system.mem_ctrls.rdQLenPdf::1                      73                       # What read queue length does an incoming req see
system.mem_ctrls.rdQLenPdf::2                       6                       # What read queue length does an incoming req see
system.mem_ctrls.rdQLenPdf::3                       0                       # What read queue length does an incoming req see
system.mem_ctrls.rdQLenPdf::4                       0                       # What read queue length does an incoming req see
system.mem_ctrls.rdQLenPdf::5                       0                       # What read queue length does an incoming req see
system.mem_ctrls.rdQLenPdf::6                       0                       # What read queue length does an incoming req see
system.mem_ctrls.rdQLenPdf::7                       0                       # What read queue length does an incoming req see
system.mem_ctrls.rdQLenPdf::8                       0                       # What read queue length does an incoming req see
system.mem_ctrls.rdQLenPdf::9                       0                       # What read queue length does an incoming req see
system.mem_ctrls.rdQLenPdf::10                      0                       # What read queue length does an incoming req see
system.mem_ctrls.rdQLenPdf::11                      0                       # What read queue length does an incoming req see
system.mem_ctrls.rdQLenPdf::12                      0                       # What read queue length does an incoming req see
system.mem_ctrls.rdQLenPdf::13                      0                       # What read queue length does an incoming req see
system.mem_ctrls.rdQLenPdf::14                      0                       # What read queue length does an incoming req see
system.mem_ctrls.rdQLenPdf::15                      0                       # What read queue length does an incoming req see
system.mem_ctrls.rdQLenPdf::16                      0                       # What read queue length does an incoming req see
system.mem_ctrls.rdQLenPdf::17                      0                       # What read queue length does an incoming req see
system.mem_ctrls.rdQLenPdf::18                      0                       # What read queue length does an incoming req see
system.mem_ctrls.rdQLenPdf::19                      0                       # What read queue length does an incoming req see
system.mem_ctrls.rdQLenPdf::20                      0                       # What read queue length does an incoming req see
system.mem_ctrls.rdQLenPdf::21                      0                       # What read queue length does an incoming req see
system.mem_ctrls.rdQLenPdf::22                      0                       # What read queue length does an incoming req see
system.mem_ctrls.rdQLenPdf::23                      0                       # What read queue length does an incoming req see
system.mem_ctrls.rdQLenPdf::24                      0                       # What read queue length does an incoming req see
system.mem_ctrls.rdQLenPdf::25                      0                       # What read queue length does an incoming req see
system.mem_ctrls.rdQLenPdf::26                      0                       # What read queue length does an incoming req see
system.mem_ctrls.rdQLenPdf::27                      0                       # What read queue length does an incoming req see
system.mem_ctrls.rdQLenPdf::28                      0                       # What read queue length does an incoming req see
system.mem_ctrls.rdQLenPdf::29                      0                       # What read queue length does an incoming req see
system.mem_ctrls.rdQLenPdf::30                      0                       # What read queue length does an incoming req see
system.mem_ctrls.rdQLenPdf::31                      0                       # What read queue length does an incoming req see
system.mem_ctrls.wrQLenPdf::0                       1                       # What write queue length does an incoming req see
system.mem_ctrls.wrQLenPdf::1                       1                       # What write queue length does an incoming req see
system.mem_ctrls.wrQLenPdf::2                       1                       # What write queue length does an incoming req see
system.mem_ctrls.wrQLenPdf::3                       1                       # What write queue length does an incoming req see
system.mem_ctrls.wrQLenPdf::4                       1                       # What write queue length does an incoming req see
system.mem_ctrls.wrQLenPdf::5                       1                       # What write queue length does an incoming req see
system.mem_ctrls.wrQLenPdf::6                       1                       # What write queue length does an incoming req see
system.mem_ctrls.wrQLenPdf::7                       1                       # What write queue length does an incoming req see
system.mem_ctrls.wrQLenPdf::8                       1                       # What write queue length does an incoming req see
system.mem_ctrls.wrQLenPdf::9                       1                       # What write queue length does an incoming req see
system.mem_ctrls.wrQLenPdf::10                      1                       # What write queue length does an incoming req see
system.mem_ctrls.wrQLenPdf::11                      1                       # What write queue length does an incoming req see
system.mem_ctrls.wrQLenPdf::12                      1                       # What write queue length does an incoming req see
system.mem_ctrls.wrQLenPdf::13                      1                       # What write queue length does an incoming req see
system.mem_ctrls.wrQLenPdf::14                      1                       # What write queue length does an incoming req see
system.mem_ctrls.wrQLenPdf::15                   1232                       # What write queue length does an incoming req see
system.mem_ctrls.wrQLenPdf::16                   1232                       # What write queue length does an incoming req see
system.mem_ctrls.wrQLenPdf::17                   1496                       # What write queue length does an incoming req see
system.mem_ctrls.wrQLenPdf::18                   1496                       # What write queue length does an incoming req see
system.mem_ctrls.wrQLenPdf::19                   1496                       # What write queue length does an incoming req see
system.mem_ctrls.wrQLenPdf::20                   1495                       # What write queue length does an incoming req see
system.mem_ctrls.wrQLenPdf::21                   1495                       # What write queue length does an incoming req see
system.mem_ctrls.wrQLenPdf::22                   1495                       # What write queue length does an incoming req see
system.mem_ctrls.wrQLenPdf::23                   1495                       # What write queue length does an incoming req see
system.mem_ctrls.wrQLenPdf::24                   1495                       # What write queue length does an incoming req see
system.mem_ctrls.wrQLenPdf::25                   1495                       # What write queue length does an incoming req see
system.mem_ctrls.wrQLenPdf::26                   1495                       # What write queue length does an incoming req see
system.mem_ctrls.wrQLenPdf::27                   1495                       # What write queue length does an incoming req see
system.mem_ctrls.wrQLenPdf::28                   1495                       # What write queue length does an incoming req see
system.mem_ctrls.wrQLenPdf::29                   1495                       # What write queue length does an incoming req see
system.mem_ctrls.wrQLenPdf::30                   1495                       # What write queue length does an incoming req see
system.mem_ctrls.wrQLenPdf::31                   1495                       # What write queue length does an incoming req see
system.mem_ctrls.wrQLenPdf::32                   1495                       # What write queue length does an incoming req see
system.mem_ctrls.wrQLenPdf::33                      0                       # What write queue length does an incoming req see
system.mem_ctrls.wrQLenPdf::34                      0                       # What write queue length does an incoming req see
system.mem_ctrls.wrQLenPdf::35                      0                       # What write queue length does an incoming req see
system.mem_ctrls.wrQLenPdf::36                      0                       # What write queue length does an incoming req see
system.mem_ctrls.wrQLenPdf::37                      0                       # What write queue length does an incoming req see
system.mem_ctrls.wrQLenPdf::38                      0                       # What write queue length does an incoming req see
system.mem_ctrls.wrQLenPdf::39                      0                       # What write queue length does an incoming req see
system.mem_ctrls.wrQLenPdf::40                      0                       # What write queue length does an incoming req see
system.mem_ctrls.wrQLenPdf::41                      0                       # What write queue length does an incoming req see
system.mem_ctrls.wrQLenPdf::42                      0                       # What write queue length does an incoming req see
system.mem_ctrls.wrQLenPdf::43                      0                       # What write queue length does an incoming req see
system.mem_ctrls.wrQLenPdf::44                      0                       # What write queue length does an incoming req see
system.mem_ctrls.wrQLenPdf::45                      0                       # What write queue length does an incoming req see
system.mem_ctrls.wrQLenPdf::46                      0                       # What write queue length does an incoming req see
system.mem_ctrls.wrQLenPdf::47                      0                       # What write queue length does an incoming req see
system.mem_ctrls.wrQLenPdf::48                      0                       # What write queue length does an incoming req see
system.mem_ctrls.wrQLenPdf::49                      0                       # What write queue length does an incoming req see
system.mem_ctrls.wrQLenPdf::50                      0                       # What write queue length does an incoming req see
system.mem_ctrls.wrQLenPdf::51                      0                       # What write queue length does an incoming req see
system.mem_ctrls.wrQLenPdf::52                      0                       # What write queue length does an incoming req see
system.mem_ctrls.wrQLenPdf::53                      0                       # What write queue length does an incoming req see
system.mem_ctrls.wrQLenPdf::54                      0                       # What write queue length does an incoming req see
system.mem_ctrls.wrQLenPdf::55                      0                       # What write queue length does an incoming req see
system.mem_ctrls.wrQLenPdf::56                      0                       # What write queue length does an incoming req see
system.mem_ctrls.wrQLenPdf::57                      0                       # What write queue length does an incoming req see
system.mem_ctrls.wrQLenPdf::58                      0                       # What write queue length does an incoming req see
system.mem_ctrls.wrQLenPdf::59                      0                       # What write queue length does an incoming req see
system.mem_ctrls.wrQLenPdf::60                      0                       # What write queue length does an incoming req see
system.mem_ctrls.wrQLenPdf::61                      0                       # What write queue length does an incoming req see
system.mem_ctrls.wrQLenPdf::62                      0                       # What write queue length does an incoming req see
system.mem_ctrls.wrQLenPdf::63                      0                       # What write queue length does an incoming req see
system.mem_ctrls.bytesPerActivate::samples        24383                       # Bytes accessed per row activation
system.mem_ctrls.bytesPerActivate::mean    182.957634                       # Bytes accessed per row activation
system.mem_ctrls.bytesPerActivate::gmean   134.146529                       # Bytes accessed per row activation
system.mem_ctrls.bytesPerActivate::stdev   181.219805                       # Bytes accessed per row activation
system.mem_ctrls.bytesPerActivate::0-127         8961     36.75%     36.75% # Bytes accessed per row activation
system.mem_ctrls.bytesPerActivate::128-255        10109     41.46%     78.21% # Bytes accessed per row activation
system.mem_ctrls.bytesPerActivate::256-383         2647     10.86%     89.07% # Bytes accessed per row activation
system.mem_ctrls.bytesPerActivate::384-511          839      3.44%     92.51% # Bytes accessed per row activation
system.mem_ctrls.bytesPerActivate::512-639          877      3.60%     96.10% # Bytes accessed per row activation
system.mem_ctrls.bytesPerActivate::640-767          261      1.07%     97.17% # Bytes accessed per row activation
system.mem_ctrls.bytesPerActivate::768-895          195      0.80%     97.97% # Bytes accessed per row activation
system.mem_ctrls.bytesPerActivate::896-1023          181      0.74%     98.72% # Bytes accessed per row activation
system.mem_ctrls.bytesPerActivate::1024-1151          313      1.28%    100.00% # Bytes accessed per row activation
system.mem_ctrls.bytesPerActivate::total        24383                       # Bytes accessed per row activation
system.mem_ctrls.rdPerTurnAround::samples         1495                       # Reads before turning the bus around for writes
system.mem_ctrls.rdPerTurnAround::mean      28.974582                       # Reads before turning the bus around for writes
system.mem_ctrls.rdPerTurnAround::gmean     18.073971                       # Reads before turning the bus around for writes
system.mem_ctrls.rdPerTurnAround::stdev    421.001424                       # Reads before turning the bus around for writes
system.mem_ctrls.rdPerTurnAround::0-511          1494     99.93%     99.93% # Reads before turning the bus around for writes
system.mem_ctrls.rdPerTurnAround::15872-16383            1      0.07%    100.00% # Reads before turning the bus around for writes
system.mem_ctrls.rdPerTurnAround::total          1495                       # Reads before turning the bus around for writes
system.mem_ctrls.wrPerTurnAround::samples         1495                       # Writes before turning the bus around for reads
system.mem_ctrls.wrPerTurnAround::mean      17.646823                       # Writes before turning the bus around for reads
system.mem_ctrls.wrPerTurnAround::gmean     17.629482                       # Writes before turning the bus around for reads
system.mem_ctrls.wrPerTurnAround::stdev      0.762896                       # Writes before turning the bus around for reads
system.mem_ctrls.wrPerTurnAround::16              264     17.66%     17.66% # Writes before turning the bus around for reads
system.mem_ctrls.wrPerTurnAround::18             1231     82.34%    100.00% # Writes before turning the bus around for reads
[...]
system.cpu.icache.tags.occ_percent::total     0.799801                       # Average percentage of cache occupancy
system.cpu.icache.tags.occ_task_id_blocks::1024          410                       # Occupied blocks per task id
system.cpu.icache.tags.age_task_id_blocks_1024::4          410                       # Occupied blocks per task id
system.cpu.icache.tags.occ_task_id_percent::1024     0.800781                       # Percentage of cache occupancy per task id
system.cpu.icache.tags.tag_accesses         124669464                       # Number of tag accesses
system.cpu.icache.tags.data_accesses        124669464                       # Number of data accesses
system.cpu.dtb.walker.pwrStateResidencyTicks::UNDEFINED  74576907500                       # Cumulative time (in ticks) in various power states
system.cpu.dtb.stage2_mmu.stage2_tlb.walker.pwrStateResidencyTicks::UNDEFINED  74576907500                       # Cumulative time (in ticks) in various power states
system.cpu.dcache.pwrStateResidencyTicks::UNDEFINED  74576907500                       # Cumulative time (in ticks) in various power states
system.cpu.dcache.demand_hits::.cpu.data     36054103                       # number of demand (read+write) hits
system.cpu.dcache.demand_hits::total         36054103                       # number of demand (read+write) hits
system.cpu.dcache.overall_hits::.cpu.data     36057474                       # number of overall hits
system.cpu.dcache.overall_hits::total        36057474                       # number of overall hits
system.cpu.dcache.demand_misses::.cpu.data        76170                       # number of demand (read+write) misses
system.cpu.dcache.demand_misses::total          76170                       # number of demand (read+write) misses
system.cpu.dcache.overall_misses::.cpu.data        76211                       # number of overall misses
system.cpu.dcache.overall_misses::total         76211                       # number of overall misses
system.cpu.dcache.demand_miss_latency::.cpu.data   5507418750                       # number of demand (read+write) miss cycles
system.cpu.dcache.demand_miss_latency::total   5507418750                       # number of demand (read+write) miss cycles
system.cpu.dcache.overall_miss_latency::.cpu.data   5507418750                       # number of overall miss cycles
system.cpu.dcache.overall_miss_latency::total   5507418750                       # number of overall miss cycles
system.cpu.dcache.demand_accesses::.cpu.data     36130273                       # number of demand (read+write) accesses
system.cpu.dcache.demand_accesses::total     36130273                       # number of demand (read+write) accesses
system.cpu.dcache.overall_accesses::.cpu.data     36133685                       # number of overall (read+write) accesses
system.cpu.dcache.overall_accesses::total     36133685                       # number of overall (read+write) accesses
system.cpu.dcache.demand_miss_rate::.cpu.data     0.002108                       # miss rate for demand accesses
system.cpu.dcache.demand_miss_rate::total     0.002108                       # miss rate for demand accesses
system.cpu.dcache.overall_miss_rate::.cpu.data     0.002109                       # miss rate for overall accesses
system.cpu.dcache.overall_miss_rate::total     0.002109                       # miss rate for overall accesses
system.cpu.dcache.demand_avg_miss_latency::.cpu.data 72304.302875                       # average overall miss latency
system.cpu.dcache.demand_avg_miss_latency::total 72304.302875                       # average overall miss latency
system.cpu.dcache.overall_avg_miss_latency::.cpu.data 72265.404600                       # average overall miss latency
system.cpu.dcache.overall_avg_miss_latency::total 72265.404600                       # average overall miss latency
system.cpu.dcache.blocked_cycles::no_mshrs            0                       # number of cycles access was blocked
system.cpu.dcache.blocked_cycles::no_targets            0                       # number of cycles access was blocked
system.cpu.dcache.blocked::no_mshrs                 0                       # number of cycles access was blocked
system.cpu.dcache.blocked::no_targets               0                       # number of cycles access was blocked
system.cpu.dcache.avg_blocked_cycles::no_mshrs          nan                       # average number of cycles each access was blocked
system.cpu.dcache.avg_blocked_cycles::no_targets          nan                       # average number of cycles each access was blocked
system.cpu.dcache.writebacks::.writebacks        52248                       # number of writebacks
system.cpu.dcache.writebacks::total             52248                       # number of writebacks
system.cpu.dcache.demand_mshr_hits::.cpu.data        16519                       # number of demand (read+write) MSHR hits
system.cpu.dcache.demand_mshr_hits::total        16519                       # number of demand (read+write) MSHR hits
system.cpu.dcache.overall_mshr_hits::.cpu.data        16519                       # number of overall MSHR hits
system.cpu.dcache.overall_mshr_hits::total        16519                       # number of overall MSHR hits
system.cpu.dcache.demand_mshr_misses::.cpu.data        59651                       # number of demand (read+write) MSHR misses
system.cpu.dcache.demand_mshr_misses::total        59651                       # number of demand (read+write) MSHR misses
system.cpu.dcache.overall_mshr_misses::.cpu.data        59688                       # number of overall MSHR misses
system.cpu.dcache.overall_mshr_misses::total        59688                       # number of overall MSHR misses
system.cpu.dcache.demand_mshr_miss_latency::.cpu.data   4024421875                       # number of demand (read+write) MSHR miss cycles
system.cpu.dcache.demand_mshr_miss_latency::total   4024421875                       # number of demand (read+write) MSHR miss cycles
system.cpu.dcache.overall_mshr_miss_latency::.cpu.data   4025892500                       # number of overall MSHR miss cycles
system.cpu.dcache.overall_mshr_miss_latency::total   4025892500                       # number of overall MSHR miss cycles
system.cpu.dcache.demand_mshr_miss_rate::.cpu.data     0.001651                       # mshr miss rate for demand accesses
system.cpu.dcache.demand_mshr_miss_rate::total     0.001651                       # mshr miss rate for demand accesses
system.cpu.dcache.overall_mshr_miss_rate::.cpu.data     0.001652                       # mshr miss rate for overall accesses
system.cpu.dcache.overall_mshr_miss_rate::total     0.001652                       # mshr miss rate for overall accesses
system.cpu.dcache.demand_avg_mshr_miss_latency::.cpu.data 67466.125882                       # average overall mshr miss latency
system.cpu.dcache.demand_avg_mshr_miss_latency::total 67466.125882                       # average overall mshr miss latency
system.cpu.dcache.overall_avg_mshr_miss_latency::.cpu.data 67448.942836                       # average overall mshr miss latency
system.cpu.dcache.overall_avg_mshr_miss_latency::total 67448.942836                       # average overall mshr miss latency
system.cpu.dcache.replacements                  59178                       # number of replacements
system.cpu.dcache.ReadReq_hits::.cpu.data     21394600                       # number of ReadReq hits
system.cpu.dcache.ReadReq_hits::total        21394600                       # number of ReadReq hits
system.cpu.dcache.ReadReq_misses::.cpu.data        20631                       # number of ReadReq misses
system.cpu.dcache.ReadReq_misses::total         20631                       # number of ReadReq misses
system.cpu.dcache.ReadReq_miss_latency::.cpu.data    643947500                       # number of ReadReq miss cycles
system.cpu.dcache.ReadReq_miss_latency::total    643947500                       # number of ReadReq miss cycles
system.cpu.dcache.ReadReq_accesses::.cpu.data     21415231                       # number of ReadReq accesses(hits+misses)
system.cpu.dcache.ReadReq_accesses::total     21415231                       # number of ReadReq accesses(hits+misses)
system.cpu.dcache.ReadReq_miss_rate::.cpu.data     0.000963                       # miss rate for ReadReq accesses
system.cpu.dcache.ReadReq_miss_rate::total     0.000963                       # miss rate for ReadReq accesses
system.cpu.dcache.ReadReq_avg_miss_latency::.cpu.data 31212.616936                       # average ReadReq miss latency
system.cpu.dcache.ReadReq_avg_miss_latency::total 31212.616936                       # average ReadReq miss latency
system.cpu.dcache.ReadReq_mshr_hits::.cpu.data           11                       # number of ReadReq MSHR hits
system.cpu.dcache.ReadReq_mshr_hits::total           11                       # number of ReadReq MSHR hits
system.cpu.dcache.ReadReq_mshr_misses::.cpu.data        20620                       # number of ReadReq MSHR misses
system.cpu.dcache.ReadReq_mshr_misses::total        20620                       # number of ReadReq MSHR misses
system.cpu.dcache.ReadReq_mshr_miss_latency::.cpu.data    617319375                       # number of ReadReq MSHR miss cycles
system.cpu.dcache.ReadReq_mshr_miss_latency::total    617319375                       # number of ReadReq MSHR miss cycles
system.cpu.dcache.ReadReq_mshr_miss_rate::.cpu.data     0.000963                       # mshr miss rate for ReadReq accesses
system.cpu.dcache.ReadReq_mshr_miss_rate::total     0.000963                       # mshr miss rate for ReadReq accesses
system.cpu.dcache.ReadReq_avg_mshr_miss_latency::.cpu.data 29937.894035                       # average ReadReq mshr miss latency
system.cpu.dcache.ReadReq_avg_mshr_miss_latency::total 29937.894035                       # average ReadReq mshr miss latency
system.cpu.dcache.WriteReq_hits::.cpu.data     14659503                       # number of WriteReq hits
system.cpu.dcache.WriteReq_hits::total       14659503                       # number of WriteReq hits
system.cpu.dcache.WriteReq_misses::.cpu.data        55539                       # number of WriteReq misses
system.cpu.dcache.WriteReq_misses::total        55539                       # number of WriteReq misses
system.cpu.dcache.WriteReq_miss_latency::.cpu.data   4863471250                       # number of WriteReq miss cycles
system.cpu.dcache.WriteReq_miss_latency::total   4863471250                       # number of WriteReq miss cycles
system.cpu.dcache.WriteReq_accesses::.cpu.data     14715042                       # number of WriteReq accesses(hits+misses)
system.cpu.dcache.WriteReq_accesses::total     14715042                       # number of WriteReq accesses(hits+misses)
system.cpu.dcache.WriteReq_miss_rate::.cpu.data     0.003774                       # miss rate for WriteReq accesses
system.cpu.dcache.WriteReq_miss_rate::total     0.003774                       # miss rate for WriteReq accesses
system.cpu.dcache.WriteReq_avg_miss_latency::.cpu.data 87568.577936                       # average WriteReq miss latency
system.cpu.dcache.WriteReq_avg_miss_latency::total 87568.577936                       # average WriteReq miss latency
system.cpu.dcache.WriteReq_mshr_hits::.cpu.data        16508                       # number of WriteReq MSHR hits
system.cpu.dcache.WriteReq_mshr_hits::total        16508                       # number of WriteReq MSHR hits
system.cpu.dcache.WriteReq_mshr_misses::.cpu.data        39031                       # number of WriteReq MSHR misses
system.cpu.dcache.WriteReq_mshr_misses::total        39031                       # number of WriteReq MSHR misses
system.cpu.dcache.WriteReq_mshr_miss_latency::.cpu.data   3407102500                       # number of WriteReq MSHR miss cycles
system.cpu.dcache.WriteReq_mshr_miss_latency::total   3407102500                       # number of WriteReq MSHR miss cycles
system.cpu.dcache.WriteReq_mshr_miss_rate::.cpu.data     0.002652                       # mshr miss rate for WriteReq accesses
system.cpu.dcache.WriteReq_mshr_miss_rate::total     0.002652                       # mshr miss rate for WriteReq accesses
system.cpu.dcache.WriteReq_avg_mshr_miss_latency::.cpu.data 87292.216443                       # average WriteReq mshr miss latency
system.cpu.dcache.WriteReq_avg_mshr_miss_latency::total 87292.216443                       # average WriteReq mshr miss latency
system.cpu.dcache.SoftPFReq_hits::.cpu.data         3371                       # number of SoftPFReq hits
system.cpu.dcache.SoftPFReq_hits::total          3371                       # number of SoftPFReq hits
system.cpu.dcache.SoftPFReq_misses::.cpu.data           41                       # number of SoftPFReq misses
system.cpu.dcache.SoftPFReq_misses::total           41                       # number of SoftPFReq misses
system.cpu.dcache.SoftPFReq_accesses::.cpu.data         3412                       # number of SoftPFReq accesses(hits+misses)
system.cpu.dcache.SoftPFReq_accesses::total         3412                       # number of SoftPFReq accesses(hits+misses)
system.cpu.dcache.SoftPFReq_miss_rate::.cpu.data     0.012016                       # miss rate for SoftPFReq accesses
system.cpu.dcache.SoftPFReq_miss_rate::total     0.012016                       # miss rate for SoftPFReq accesses
system.cpu.dcache.SoftPFReq_mshr_misses::.cpu.data           37                       # number of SoftPFReq MSHR misses
system.cpu.dcache.SoftPFReq_mshr_misses::total           37                       # number of SoftPFReq MSHR misses
system.cpu.dcache.SoftPFReq_mshr_miss_latency::.cpu.data      1470625                       # number of SoftPFReq MSHR miss cycles
system.cpu.dcache.SoftPFReq_mshr_miss_latency::total      1470625                       # number of SoftPFReq MSHR miss cycles
system.cpu.dcache.SoftPFReq_mshr_miss_rate::.cpu.data     0.010844                       # mshr miss rate for SoftPFReq accesses
system.cpu.dcache.SoftPFReq_mshr_miss_rate::total     0.010844                       # mshr miss rate for SoftPFReq accesses
system.cpu.dcache.SoftPFReq_avg_mshr_miss_latency::.cpu.data 39746.621622                       # average SoftPFReq mshr miss latency
system.cpu.dcache.SoftPFReq_avg_mshr_miss_latency::total 39746.621622                       # average SoftPFReq mshr miss latency
system.cpu.dcache.LoadLockedReq_hits::.cpu.data        90055                       # number of LoadLockedReq hits
system.cpu.dcache.LoadLockedReq_hits::total        90055                       # number of LoadLockedReq hits
system.cpu.dcache.LoadLockedReq_misses::.cpu.data            2                       # number of LoadLockedReq misses
system.cpu.dcache.LoadLockedReq_misses::total            2                       # number of LoadLockedReq misses
system.cpu.dcache.LoadLockedReq_miss_latency::.cpu.data       171250                       # number of LoadLockedReq miss cycles
system.cpu.dcache.LoadLockedReq_miss_latency::total       171250                       # number of LoadLockedReq miss cycles
system.cpu.dcache.LoadLockedReq_accesses::.cpu.data        90057                       # number of LoadLockedReq accesses(hits+misses)
system.cpu.dcache.LoadLockedReq_accesses::total        90057                       # number of LoadLockedReq accesses(hits+misses)
system.cpu.dcache.LoadLockedReq_miss_rate::.cpu.data     0.000022                       # miss rate for LoadLockedReq accesses
system.cpu.dcache.LoadLockedReq_miss_rate::total     0.000022                       # miss rate for LoadLockedReq accesses
system.cpu.dcache.LoadLockedReq_avg_miss_latency::.cpu.data        85625                       # average LoadLockedReq miss latency
system.cpu.dcache.LoadLockedReq_avg_miss_latency::total        85625                       # average LoadLockedReq miss latency
system.cpu.dcache.LoadLockedReq_mshr_misses::.cpu.data            2                       # number of LoadLockedReq MSHR misses
system.cpu.dcache.LoadLockedReq_mshr_misses::total            2                       # number of LoadLockedReq MSHR misses
system.cpu.dcache.LoadLockedReq_mshr_miss_latency::.cpu.data       168750                       # number of LoadLockedReq MSHR miss cycles
system.cpu.dcache.LoadLockedReq_mshr_miss_latency::total       168750                       # number of LoadLockedReq MSHR miss cycles
system.cpu.dcache.LoadLockedReq_mshr_miss_rate::.cpu.data     0.000022                       # mshr miss rate for LoadLockedReq accesses
system.cpu.dcache.LoadLockedReq_mshr_miss_rate::total     0.000022                       # mshr miss rate for LoadLockedReq accesses
system.cpu.dcache.LoadLockedReq_avg_mshr_miss_latency::.cpu.data        84375                       # average LoadLockedReq mshr miss latency
system.cpu.dcache.LoadLockedReq_avg_mshr_miss_latency::total        84375                       # average LoadLockedReq mshr miss latency
system.cpu.dcache.StoreCondReq_hits::.cpu.data        90057                       # number of StoreCondReq hits
system.cpu.dcache.StoreCondReq_hits::total        90057                       # number of StoreCondReq hits
system.cpu.dcache.StoreCondReq_accesses::.cpu.data        90057                       # number of StoreCondReq accesses(hits+misses)
system.cpu.dcache.StoreCondReq_accesses::total        90057                       # number of StoreCondReq accesses(hits+misses)
system.cpu.dcache.tags.pwrStateResidencyTicks::UNDEFINED  74576907500                       # Cumulative time (in ticks) in various power states
system.cpu.dcache.tags.tagsinuse           511.285262                       # Cycle average of tags in use
system.cpu.dcache.tags.total_refs            36297276                       # Total number of references to valid blocks.
system.cpu.dcache.tags.sampled_refs             59690                       # Sample count of references to valid blocks.
system.cpu.dcache.tags.avg_refs            608.096432                       # Average number of references to valid blocks.
system.cpu.dcache.tags.warmup_cycle            187500                       # Cycle when the warmup percentage was hit.
system.cpu.dcache.tags.occ_blocks::.cpu.data   511.285262                       # Average occupied blocks per requestor
system.cpu.dcache.tags.occ_percent::.cpu.data     0.998604                       # Average percentage of cache occupancy
system.cpu.dcache.tags.occ_percent::total     0.998604                       # Average percentage of cache occupancy
system.cpu.dcache.tags.occ_task_id_blocks::1024          512                       # Occupied blocks per task id
system.cpu.dcache.tags.age_task_id_blocks_1024::0            9                       # Occupied blocks per task id
system.cpu.dcache.tags.age_task_id_blocks_1024::1           97                       # Occupied blocks per task id
system.cpu.dcache.tags.age_task_id_blocks_1024::2          340                       # Occupied blocks per task id
system.cpu.dcache.tags.age_task_id_blocks_1024::3           32                       # Occupied blocks per task id
system.cpu.dcache.tags.age_task_id_blocks_1024::4           34                       # Occupied blocks per task id
system.cpu.dcache.tags.occ_task_id_percent::1024            1                       # Percentage of cache occupancy per task id
system.cpu.dcache.tags.tag_accesses         145314886                       # Number of tag accesses
system.cpu.dcache.tags.data_accesses        145314886                       # Number of data accesses
system.cpu.itb.walker.pwrStateResidencyTicks::UNDEFINED  74576907500                       # Cumulative time (in ticks) in various power states
system.cpu.itb.stage2_mmu.stage2_tlb.walker.pwrStateResidencyTicks::UNDEFINED  74576907500                       # Cumulative time (in ticks) in various power states

---------- End Simulation Statistics   ----------
