
---------- Begin Simulation Statistics ----------
final_tick                                17376406250                       # Number of ticks from beginning of simulation (restored from checkpoints and never reset)
host_inst_rate                                 284912                       # Simulator instruction rate (inst/s)
host_mem_usage                                 678108                       # Number of bytes of host memory used
host_op_rate                                   286813                       # Simulator op (including micro ops) rate (op/s)
host_seconds                                   117.35                       # Real time elapsed on the host
host_tick_rate                              148067742                       # Simulator tick rate (ticks/s)
sim_freq                                 1000000000000                       # Frequency of simulated ticks
sim_insts                                    33435635                       # Number of instructions simulated
sim_ops                                      33658747                       # Number of ops (including micro ops) simulated
sim_seconds                                  0.017376                       # Number of seconds simulated
sim_ticks                                 17376406250                       # Number of ticks simulated
system.cpu.branchPred.BTBCorrect                    0                       # Number of correct BTB predictions (this stat may not work properly.
system.cpu.branchPred.BTBHitPct             95.189503                       # BTB Hit Percentage
system.cpu.branchPred.BTBHits                 2008311                       # Number of BTB hits
system.cpu.branchPred.BTBLookups              2109803                       # Number of BTB lookups
system.cpu.branchPred.RASInCorrect                163                       # Number of incorrect RAS predictions.
system.cpu.branchPred.condIncorrect             32594                       # Number of conditional branches incorrect
system.cpu.branchPred.condPredicted           1009107                       # Number of conditional branches predicted
system.cpu.branchPred.indirectHits             100092                       # Number of indirect target hits.
system.cpu.branchPred.indirectLookups          100488                       # Number of indirect predictor lookups.
system.cpu.branchPred.indirectMisses              396                       # Number of indirect misses.
system.cpu.branchPred.lookups                 3219746                       # Number of BP lookups
system.cpu.branchPred.usedRAS                 1104745                       # Number of times the RAS was used to get a target.
system.cpu.branchPredindirectMispredicted        27160                       # Number of mispredicted indirect branches.
system.cpu.cc_regfile_reads                 126905517                       # number of cc regfile reads
system.cpu.cc_regfile_writes                  3325852                       # number of cc regfile writes
system.cpu.commit.amos                              0                       # Number of atomic instructions committed
system.cpu.commit.branchMispredicts             32179                       # The number of times a branch was mispredicted
system.cpu.commit.branches                    3208599                       # Number of branches committed
system.cpu.commit.bw_lim_events                301100                       # number cycles where commit BW limit reached
system.cpu.commit.commitNonSpecStalls             117                       # The number of times commit has been forced to stall to communicate backwards
system.cpu.commit.commitSquashedInsts          270543                       # The number of squashed insts skipped by commit
system.cpu.commit.committedInsts             33435635                       # Number of instructions committed
system.cpu.commit.committedOps               33658747                       # Number of ops (including micro ops) committed
system.cpu.commit.committed_per_cycle::samples     27691996                       # Number of insts commited each cycle
system.cpu.commit.committed_per_cycle::mean     1.215468                       # Number of insts commited each cycle
system.cpu.commit.committed_per_cycle::stdev     1.578224                       # Number of insts commited each cycle
system.cpu.commit.committed_per_cycle::underflows            0      0.00%      0.00% # Number of insts commited each cycle
system.cpu.commit.committed_per_cycle::0     11909349     43.01%     43.01% # Number of insts commited each cycle
system.cpu.commit.committed_per_cycle::1      8646342     31.22%     74.23% # Number of insts commited each cycle
system.cpu.commit.committed_per_cycle::2      1543134      5.57%     79.80% # Number of insts commited each cycle
system.cpu.commit.committed_per_cycle::3      2771186     10.01%     89.81% # Number of insts commited each cycle
system.cpu.commit.committed_per_cycle::4      1547389      5.59%     95.40% # Number of insts commited each cycle
system.cpu.commit.committed_per_cycle::5       899936      3.25%     98.65% # Number of insts commited each cycle
system.cpu.commit.committed_per_cycle::6          377      0.00%     98.65% # Number of insts commited each cycle
system.cpu.commit.committed_per_cycle::7        73183      0.26%     98.91% # Number of insts commited each cycle
system.cpu.commit.committed_per_cycle::8       301100      1.09%    100.00% # Number of insts commited each cycle
system.cpu.commit.committed_per_cycle::overflows            0      0.00%    100.00% # Number of insts commited each cycle
system.cpu.commit.committed_per_cycle::min_value            0                       # Number of insts commited each cycle
system.cpu.commit.committed_per_cycle::max_value            8                       # Number of insts commited each cycle
system.cpu.commit.committed_per_cycle::total     27691996                       # Number of insts commited each cycle
system.cpu.commit.fp_insts                          0                       # Number of committed floating point instructions.
system.cpu.commit.function_calls              1100703                       # Number of function calls committed.
system.cpu.commit.int_insts                  32651744                       # Number of committed integer instructions.
system.cpu.commit.loads                       8426837                       # Number of loads committed
system.cpu.commit.membars                          52                       # Number of memory barriers committed
system.cpu.commit.op_class_0::No_OpClass            0      0.00%      0.00% # Class of committed instruction
system.cpu.commit.op_class_0::IntAlu         21388845     63.55%     63.55% # Class of committed instruction
system.cpu.commit.op_class_0::IntMult             155      0.00%     63.55% # Class of committed instruction
system.cpu.commit.op_class_0::IntDiv                0      0.00%     63.55% # Class of committed instruction
system.cpu.commit.op_class_0::FloatAdd              0      0.00%     63.55% # Class of committed instruction
system.cpu.commit.op_class_0::FloatCmp              0      0.00%     63.55% # Class of committed instruction
system.cpu.commit.op_class_0::FloatCvt              0      0.00%     63.55% # Class of committed instruction
system.cpu.commit.op_class_0::FloatMult             0      0.00%     63.55% # Class of committed instruction
system.cpu.commit.op_class_0::FloatMultAcc            0      0.00%     63.55% # Class of committed instruction
system.cpu.commit.op_class_0::FloatDiv              0      0.00%     63.55% # Class of committed instruction
system.cpu.commit.op_class_0::FloatMisc             0      0.00%     63.55% # Class of committed instruction
system.cpu.commit.op_class_0::FloatSqrt             0      0.00%     63.55% # Class of committed instruction
system.cpu.commit.op_class_0::SimdAdd               0      0.00%     63.55% # Class of committed instruction
system.cpu.commit.op_class_0::SimdAddAcc            0      0.00%     63.55% # Class of committed instruction
system.cpu.commit.op_class_0::SimdAlu               0      0.00%     63.55% # Class of committed instruction
system.cpu.commit.op_class_0::SimdCmp               0      0.00%     63.55% # Class of committed instruction
system.cpu.commit.op_class_0::SimdCvt               0      0.00%     63.55% # Class of committed instruction
system.cpu.commit.op_class_0::SimdMisc              0      0.00%     63.55% # Class of committed instruction
system.cpu.commit.op_class_0::SimdMult              0      0.00%     63.55% # Class of committed instruction
system.cpu.commit.op_class_0::SimdMultAcc            0      0.00%     63.55% # Class of committed instruction
system.cpu.commit.op_class_0::SimdShift             0      0.00%     63.55% # Class of committed instruction
system.cpu.commit.op_class_0::SimdShiftAcc            0      0.00%     63.55% # Class of committed instruction
system.cpu.commit.op_class_0::SimdDiv               0      0.00%     63.55% # Class of committed instruction
system.cpu.commit.op_class_0::SimdSqrt              0      0.00%     63.55% # Class of committed instruction
system.cpu.commit.op_class_0::SimdFloatAdd            0      0.00%     63.55% # Class of committed instruction
system.cpu.commit.op_class_0::SimdFloatAlu            0      0.00%     63.55% # Class of committed instruction
system.cpu.commit.op_class_0::SimdFloatCmp            0      0.00%     63.55% # Class of committed instruction
system.cpu.commit.op_class_0::SimdFloatCvt            0      0.00%     63.55% # Class of committed instruction
system.cpu.commit.op_class_0::SimdFloatDiv            0      0.00%     63.55% # Class of committed instruction
system.cpu.commit.op_class_0::SimdFloatMisc            4      0.00%     63.55% # Class of committed instruction
system.cpu.commit.op_class_0::SimdFloatMult            0      0.00%     63.55% # Class of committed instruction
system.cpu.commit.op_class_0::SimdFloatMultAcc            0      0.00%     63.55% # Class of committed instruction
system.cpu.commit.op_class_0::SimdFloatSqrt            0      0.00%     63.55% # Class of committed instruction
system.cpu.commit.op_class_0::SimdReduceAdd            0      0.00%     63.55% # Class of committed instruction
system.cpu.commit.op_class_0::SimdReduceAlu            0      0.00%     63.55% # Class of committed instruction
system.cpu.commit.op_class_0::SimdReduceCmp            0      0.00%     63.55% # Class of committed instruction
system.cpu.commit.op_class_0::SimdFloatReduceAdd            0      0.00%     63.55% # Class of committed instruction
system.cpu.commit.op_class_0::SimdFloatReduceCmp            0      0.00%     63.55% # Class of committed instruction
system.cpu.commit.op_class_0::SimdAes               0      0.00%     63.55% # Class of committed instruction
system.cpu.commit.op_class_0::SimdAesMix            0      0.00%     63.55% # Class of committed instruction
system.cpu.commit.op_class_0::SimdSha1Hash            0      0.00%     63.55% # Class of committed instruction
system.cpu.commit.op_class_0::SimdSha1Hash2            0      0.00%     63.55% # Class of committed instruction
system.cpu.commit.op_class_0::SimdSha256Hash            0      0.00%     63.55% # Class of committed instruction
system.cpu.commit.op_class_0::SimdSha256Hash2            0      0.00%     63.55% # Class of committed instruction
system.cpu.commit.op_class_0::SimdShaSigma2            0      0.00%     63.55% # Class of committed instruction
system.cpu.commit.op_class_0::SimdShaSigma3            0      0.00%     63.55% # Class of committed instruction
system.cpu.commit.op_class_0::SimdPredAlu            0      0.00%     63.55% # Class of committed instruction
system.cpu.commit.op_class_0::MemRead         8426837     25.04%     88.58% # Class of committed instruction
system.cpu.commit.op_class_0::MemWrite        3842906     11.42%    100.00% # Class of committed instruction
system.cpu.commit.op_class_0::FloatMemRead            0      0.00%    100.00% # Class of committed instruction
system.cpu.commit.op_class_0::FloatMemWrite            0      0.00%    100.00% # Class of committed instruction
system.cpu.commit.op_class_0::IprAccess             0      0.00%    100.00% # Class of committed instruction
system.cpu.commit.op_class_0::InstPrefetch            0      0.00%    100.00% # Class of committed instruction
system.cpu.commit.op_class_0::total          33658747                       # Class of committed instruction
system.cpu.commit.refs                       12269743                       # Number of memory references committed
system.cpu.commit.swp_count                         0                       # Number of s/w prefetches committed
system.cpu.commit.vec_insts                         0                       # Number of committed Vector instructions.
system.cpu.committedInsts                    33435635                       # Number of Instructions Simulated
system.cpu.committedOps                      33658747                       # Number of Ops (including micro ops) Simulated
system.cpu.cpi                               0.831516                       # CPI: Cycles Per Instruction
system.cpu.cpi_total                         0.831516                       # CPI: Total CPI of All Threads
system.cpu.decode.BlockedCycles                157905                       # Number of cycles decode is blocked
system.cpu.decode.BranchMispred                   469                       # Number of times decode detected a branch misprediction
system.cpu.decode.BranchResolved              2006305                       # Number of times decode resolved a branch
system.cpu.decode.DecodedInsts               34128880                       # Number of instructions handled by decode
system.cpu.decode.IdleCycles                 10847172                       # Number of cycles decode is idle
system.cpu.decode.RunCycles                  16660956                       # Number of cycles decode is running
system.cpu.decode.SquashCycles                  32222                       # Number of cycles decode is squashing
system.cpu.decode.SquashedInsts                100805                       # Number of squashed instructions handled by decode
system.cpu.decode.UnblockCycles                 44187                       # Number of cycles decode is unblocking
system.cpu.dtb.accesses                             0                       # DTB accesses
system.cpu.dtb.align_faults                         0                       # Number of TLB faults due to alignment restrictions
system.cpu.dtb.domain_faults                        0                       # Number of TLB faults due to domain restrictions
system.cpu.dtb.flush_entries                        0                       # Number of entries that have been flushed from TLB
system.cpu.dtb.flush_tlb                            0                       # Number of times complete TLB was flushed
system.cpu.dtb.flush_tlb_asid                       0                       # Number of times TLB was flushed by ASID
system.cpu.dtb.flush_tlb_mva                        0                       # Number of times TLB was flushed by MVA
system.cpu.dtb.flush_tlb_mva_asid                   0                       # Number of times TLB was flushed by MVA & ASID
system.cpu.dtb.hits                                 0                       # DTB hits
system.cpu.dtb.inst_accesses                        0                       # ITB inst accesses
system.cpu.dtb.inst_hits                            0                       # ITB inst hits
system.cpu.dtb.inst_misses                          0                       # ITB inst misses
system.cpu.dtb.misses                               0                       # DTB misses
system.cpu.dtb.perms_faults                         0                       # Number of TLB faults due to permissions restrictions
system.cpu.dtb.prefetch_faults                      0                       # Number of TLB faults due to prefetch
system.cpu.dtb.read_accesses                        0                       # DTB read accesses
system.cpu.dtb.read_hits                            0                       # DTB read hits
system.cpu.dtb.read_misses                          0                       # DTB read misses
system.cpu.dtb.stage2_mmu.stage2_tlb.accesses            0                       # DTB accesses
system.cpu.dtb.stage2_mmu.stage2_tlb.align_faults            0                       # Number of TLB faults due to alignment restrictions
system.cpu.dtb.stage2_mmu.stage2_tlb.domain_faults            0                       # Number of TLB faults due to domain restrictions
system.cpu.dtb.stage2_mmu.stage2_tlb.flush_entries            0                       # Number of entries that have been flushed from TLB
system.cpu.dtb.stage2_mmu.stage2_tlb.flush_tlb            0                       # Number of times complete TLB was flushed
system.cpu.dtb.stage2_mmu.stage2_tlb.flush_tlb_asid            0                       # Number of times TLB was flushed by ASID
system.cpu.dtb.stage2_mmu.stage2_tlb.flush_tlb_mva            0                       # Number of times TLB was flushed by MVA
system.cpu.dtb.stage2_mmu.stage2_tlb.flush_tlb_mva_asid            0                       # Number of times TLB was flushed by MVA & ASID
system.cpu.dtb.stage2_mmu.stage2_tlb.hits            0                       # DTB hits
system.cpu.dtb.stage2_mmu.stage2_tlb.inst_accesses            0                       # ITB inst accesses
system.cpu.dtb.stage2_mmu.stage2_tlb.inst_hits            0                       # ITB inst hits
system.cpu.dtb.stage2_mmu.stage2_tlb.inst_misses            0                       # ITB inst misses
system.cpu.dtb.stage2_mmu.stage2_tlb.misses            0                       # DTB misses
system.cpu.dtb.stage2_mmu.stage2_tlb.perms_faults            0                       # Number of TLB faults due to permissions restrictions
system.cpu.dtb.stage2_mmu.stage2_tlb.prefetch_faults            0                       # Number of TLB faults due to prefetch
system.cpu.dtb.stage2_mmu.stage2_tlb.read_accesses            0                       # DTB read accesses
system.cpu.dtb.stage2_mmu.stage2_tlb.read_hits            0                       # DTB read hits
system.cpu.dtb.stage2_mmu.stage2_tlb.read_misses            0                       # DTB read misses
system.cpu.dtb.stage2_mmu.stage2_tlb.walker.walkRequestOrigin_Requested::Data            0                       # Table walker requests started/completed, data/inst
system.cpu.dtb.stage2_mmu.stage2_tlb.walker.walkRequestOrigin_Requested::Inst            0                       # Table walker requests started/completed, data/inst
system.cpu.dtb.stage2_mmu.stage2_tlb.walker.walkRequestOrigin_Requested::total            0                       # Table walker requests started/completed, data/inst
system.cpu.dtb.stage2_mmu.stage2_tlb.walker.walkRequestOrigin_Completed::Data            0                       # Table walker requests started/completed, data/inst
system.cpu.dtb.stage2_mmu.stage2_tlb.walker.walkRequestOrigin_Completed::Inst            0                       # Table walker requests started/completed, data/inst
system.cpu.dtb.stage2_mmu.stage2_tlb.walker.walkRequestOrigin_Completed::total            0                       # Table walker requests started/completed, data/inst
system.cpu.dtb.stage2_mmu.stage2_tlb.walker.walkRequestOrigin::total            0                       # Table walker requests started/completed, data/inst
system.cpu.dtb.stage2_mmu.stage2_tlb.walker.walks            0                       # Table walker walks requested
system.cpu.dtb.stage2_mmu.stage2_tlb.write_accesses            0                       # DTB write accesses
system.cpu.dtb.stage2_mmu.stage2_tlb.write_hits            0                       # DTB write hits
system.cpu.dtb.stage2_mmu.stage2_tlb.write_misses            0                       # DTB write misses
system.cpu.dtb.walker.walkRequestOrigin_Requested::Data            0                       # Table walker requests started/completed, data/inst
system.cpu.dtb.walker.walkRequestOrigin_Requested::Inst            0                       # Table walker requests started/completed, data/inst
system.cpu.dtb.walker.walkRequestOrigin_Requested::total            0                       # Table walker requests started/completed, data/inst
system.cpu.dtb.walker.walkRequestOrigin_Completed::Data            0                       # Table walker requests started/completed, data/inst
system.cpu.dtb.walker.walkRequestOrigin_Completed::Inst            0                       # Table walker requests started/completed, data/inst
system.cpu.dtb.walker.walkRequestOrigin_Completed::total            0                       # Table walker requests started/completed, data/inst
system.cpu.dtb.walker.walkRequestOrigin::total            0                       # Table walker requests started/completed, data/inst
system.cpu.dtb.walker.walks                         0                       # Table walker walks requested
system.cpu.dtb.write_accesses                       0                       # DTB write accesses
system.cpu.dtb.write_hits                           0                       # DTB write hits
system.cpu.dtb.write_misses                         0                       # DTB write misses
system.cpu.fetch.Branches                     3219746                       # Number of branches that fetch encountered
system.cpu.fetch.CacheLines                  10864774                       # Number of cache lines fetched
system.cpu.fetch.Cycles                      16807591                       # Number of cycles fetch has run and was not squashing or blocked
system.cpu.fetch.IcacheSquashes                  9973                       # Number of outstanding Icache misses that were squashed
system.cpu.fetch.IcacheWaitRetryStallCycles           14                       # Number of stall cycles due to full MSHR
system.cpu.fetch.Insts                       33998901                       # Number of instructions fetch has processed
system.cpu.fetch.MiscStallCycles                   41                       # Number of cycles fetch has spent waiting on interrupts, or bad addresses, or out of MSHRs
system.cpu.fetch.PendingTrapStallCycles           561                       # Number of stall cycles due to pending traps
system.cpu.fetch.SquashCycles                   65350                       # Number of cycles fetch has spent squashing
system.cpu.fetch.branchRate                  0.115809                       # Number of branch fetches per cycle
system.cpu.fetch.icacheStallCycles           10901560                       # Number of cycles fetch is stalled on an Icache miss
system.cpu.fetch.predictedBranches            3213148                       # Number of branches that fetch has predicted taken
system.cpu.fetch.rate                        1.222883                       # Number of inst fetches per cycle
system.cpu.fetch.rateDist::samples           27742442                       # Number of instructions fetched each cycle (Total)
system.cpu.fetch.rateDist::mean              1.234647                       # Number of instructions fetched each cycle (Total)
system.cpu.fetch.rateDist::stdev             1.237942                       # Number of instructions fetched each cycle (Total)
system.cpu.fetch.rateDist::underflows               0      0.00%      0.00% # Number of instructions fetched each cycle (Total)
system.cpu.fetch.rateDist::0                 10987490     39.61%     39.61% # Number of instructions fetched each cycle (Total)
system.cpu.fetch.rateDist::1                  7036836     25.36%     64.97% # Number of instructions fetched each cycle (Total)
system.cpu.fetch.rateDist::2                  1939064      6.99%     71.96% # Number of instructions fetched each cycle (Total)
system.cpu.fetch.rateDist::3                  7779052     28.04%    100.00% # Number of instructions fetched each cycle (Total)
system.cpu.fetch.rateDist::overflows                0      0.00%    100.00% # Number of instructions fetched each cycle (Total)
system.cpu.fetch.rateDist::min_value                0                       # Number of instructions fetched each cycle (Total)
system.cpu.fetch.rateDist::max_value                3                       # Number of instructions fetched each cycle (Total)
system.cpu.fetch.rateDist::total             27742442                       # Number of instructions fetched each cycle (Total)
system.cpu.idleCycles                           59809                       # Total number of cycles that the CPU has spent unscheduled due to idling
system.cpu.iew.branchMispredicts                32264                       # Number of branch mispredicts detected at execute
system.cpu.iew.exec_branches                  3209362                       # Number of branches executed
system.cpu.iew.exec_nop                             3                       # number of nop insts executed
system.cpu.iew.exec_rate                     1.218408                       # Inst execution rate
system.cpu.iew.exec_refs                     12315057                       # number of memory reference insts executed
system.cpu.iew.exec_stores                    3870112                       # Number of stores executed
system.cpu.iew.exec_swp                             0                       # number of swp insts executed
system.cpu.iew.iewBlockCycles                   18224                       # Number of cycles IEW is blocking
system.cpu.iew.iewDispLoadInsts               8493619                       # Number of dispatched load instructions
system.cpu.iew.iewDispNonSpecInsts                 67                       # Number of dispatched non-speculative instructions
system.cpu.iew.iewDispSquashedInsts                 0                       # Number of squashed instructions skipped by dispatch
system.cpu.iew.iewDispStoreInsts              3900158                       # Number of dispatched store instructions
system.cpu.iew.iewDispatchedInsts            34004515                       # Number of instructions dispatched to IQ
system.cpu.iew.iewExecLoadInsts               8444945                       # Number of load instructions executed
system.cpu.iew.iewExecSquashedInsts             58594                       # Number of squashed instructions skipped in execute
system.cpu.iew.iewExecutedInsts              33874480                       # Number of executed instructions
system.cpu.iew.iewIQFullEvents                      0                       # Number of times the IQ has become full, causing a stall
system.cpu.iew.iewIdleCycles                        0                       # Number of cycles IEW is idle
system.cpu.iew.iewLSQFullEvents                 14380                       # Number of times the LSQ has become full, causing a stall
system.cpu.iew.iewSquashCycles                  32222                       # Number of cycles IEW is squashing
system.cpu.iew.iewUnblockCycles                 14379                       # Number of cycles IEW is unblocking
system.cpu.iew.lsq.thread0.blockedLoads             0                       # Number of blocked loads due to partial load-store forwarding
system.cpu.iew.lsq.thread0.cacheBlocked             6                       # Number of times an access to memory failed due to the cache being blocked
system.cpu.iew.lsq.thread0.forwLoads            48413                       # Number of loads that had data forwarded from stores
system.cpu.iew.lsq.thread0.ignoredResponses            7                       # Number of memory responses ignored because the instruction is squashed
system.cpu.iew.lsq.thread0.invAddrLoads             0                       # Number of loads ignored due to an invalid address
system.cpu.iew.lsq.thread0.invAddrSwpfs             0                       # Number of software prefetches ignored due to an invalid address
system.cpu.iew.lsq.thread0.memOrderViolation           32                       # Number of memory ordering violations
system.cpu.iew.lsq.thread0.rescheduledLoads            9                       # Number of loads that were rescheduled
system.cpu.iew.lsq.thread0.squashedLoads        66782                       # Number of loads squashed
system.cpu.iew.lsq.thread0.squashedStores        57252                       # Number of stores squashed
system.cpu.iew.memOrderViolationEvents             32                       # Number of memory order violations
system.cpu.iew.predictedNotTakenIncorrect         1512                       # Number of branches that were predicted not taken incorrectly
system.cpu.iew.predictedTakenIncorrect          30752                       # Number of branches that were predicted taken incorrectly
system.cpu.iew.wb_consumers                  22107102                       # num instructions consuming a value
system.cpu.iew.wb_count                      33856937                       # cumulative count of insts written-back
system.cpu.iew.wb_fanout                     0.980683                       # average fanout of values written-back
system.cpu.iew.wb_producers                  21680060                       # num instructions producing a value
system.cpu.iew.wb_rate                       1.217777                       # insts written-back per cycle
system.cpu.iew.wb_sent                       33857040                       # cumulative count of insts sent to commit
system.cpu.int_regfile_reads                 33144215                       # number of integer regfile reads
system.cpu.int_regfile_writes                26772342                       # number of integer regfile writes
system.cpu.ipc                               1.202623                       # IPC: Instructions Per Cycle
system.cpu.ipc_total                         1.202623                       # IPC: Total IPC of All Threads
system.cpu.iq.FU_type_0::No_OpClass                43      0.00%      0.00% # Type of FU issued
system.cpu.iq.FU_type_0::IntAlu              21596267     63.64%     63.64% # Type of FU issued
system.cpu.iq.FU_type_0::IntMult                  164      0.00%     63.64% # Type of FU issued
system.cpu.iq.FU_type_0::IntDiv                     0      0.00%     63.64% # Type of FU issued
system.cpu.iq.FU_type_0::FloatAdd                   0      0.00%     63.64% # Type of FU issued
system.cpu.iq.FU_type_0::FloatCmp                   0      0.00%     63.64% # Type of FU issued
system.cpu.iq.FU_type_0::FloatCvt                   0      0.00%     63.64% # Type of FU issued
system.cpu.iq.FU_type_0::FloatMult                  0      0.00%     63.64% # Type of FU issued
system.cpu.iq.FU_type_0::FloatMultAcc               0      0.00%     63.64% # Type of FU issued
system.cpu.iq.FU_type_0::FloatDiv                   0      0.00%     63.64% # Type of FU issued
system.cpu.iq.FU_type_0::FloatMisc                  0      0.00%     63.64% # Type of FU issued
system.cpu.iq.FU_type_0::FloatSqrt                  0      0.00%     63.64% # Type of FU issued
system.cpu.iq.FU_type_0::SimdAdd                    0      0.00%     63.64% # Type of FU issued
system.cpu.iq.FU_type_0::SimdAddAcc                 0      0.00%     63.64% # Type of FU issued
system.cpu.iq.FU_type_0::SimdAlu                    0      0.00%     63.64% # Type of FU issued
system.cpu.iq.FU_type_0::SimdCmp                    0      0.00%     63.64% # Type of FU issued
system.cpu.iq.FU_type_0::SimdCvt                    0      0.00%     63.64% # Type of FU issued
system.cpu.iq.FU_type_0::SimdMisc                   0      0.00%     63.64% # Type of FU issued
system.cpu.iq.FU_type_0::SimdMult                   0      0.00%     63.64% # Type of FU issued
system.cpu.iq.FU_type_0::SimdMultAcc                0      0.00%     63.64% # Type of FU issued
system.cpu.iq.FU_type_0::SimdShift                  0      0.00%     63.64% # Type of FU issued
system.cpu.iq.FU_type_0::SimdShiftAcc               0      0.00%     63.64% # Type of FU issued
system.cpu.iq.FU_type_0::SimdDiv                    0      0.00%     63.64% # Type of FU issued
system.cpu.iq.FU_type_0::SimdSqrt                   0      0.00%     63.64% # Type of FU issued
system.cpu.iq.FU_type_0::SimdFloatAdd               0      0.00%     63.64% # Type of FU issued
system.cpu.iq.FU_type_0::SimdFloatAlu               0      0.00%     63.64% # Type of FU issued
system.cpu.iq.FU_type_0::SimdFloatCmp               0      0.00%     63.64% # Type of FU issued
system.cpu.iq.FU_type_0::SimdFloatCvt               0      0.00%     63.64% # Type of FU issued
system.cpu.iq.FU_type_0::SimdFloatDiv               0      0.00%     63.64% # Type of FU issued
system.cpu.iq.FU_type_0::SimdFloatMisc              4      0.00%     63.64% # Type of FU issued
system.cpu.iq.FU_type_0::SimdFloatMult              0      0.00%     63.64% # Type of FU issued
system.cpu.iq.FU_type_0::SimdFloatMultAcc            0      0.00%     63.64% # Type of FU issued
system.cpu.iq.FU_type_0::SimdFloatSqrt              0      0.00%     63.64% # Type of FU issued
system.cpu.iq.FU_type_0::SimdReduceAdd              0      0.00%     63.64% # Type of FU issued
system.cpu.iq.FU_type_0::SimdReduceAlu              0      0.00%     63.64% # Type of FU issued
system.cpu.iq.FU_type_0::SimdReduceCmp              0      0.00%     63.64% # Type of FU issued
system.cpu.iq.FU_type_0::SimdFloatReduceAdd            0      0.00%     63.64% # Type of FU issued
system.cpu.iq.FU_type_0::SimdFloatReduceCmp            0      0.00%     63.64% # Type of FU issued
system.cpu.iq.FU_type_0::SimdAes                    0      0.00%     63.64% # Type of FU issued
system.cpu.iq.FU_type_0::SimdAesMix                 0      0.00%     63.64% # Type of FU issued
system.cpu.iq.FU_type_0::SimdSha1Hash               0      0.00%     63.64% # Type of FU issued
system.cpu.iq.FU_type_0::SimdSha1Hash2              0      0.00%     63.64% # Type of FU issued
system.cpu.iq.FU_type_0::SimdSha256Hash             0      0.00%     63.64% # Type of FU issued
system.cpu.iq.FU_type_0::SimdSha256Hash2            0      0.00%     63.64% # Type of FU issued
system.cpu.iq.FU_type_0::SimdShaSigma2              0      0.00%     63.64% # Type of FU issued
system.cpu.iq.FU_type_0::SimdShaSigma3              0      0.00%     63.64% # Type of FU issued
system.cpu.iq.FU_type_0::SimdPredAlu                0      0.00%     63.64% # Type of FU issued
system.cpu.iq.FU_type_0::MemRead              8466210     24.95%     88.59% # Type of FU issued
system.cpu.iq.FU_type_0::MemWrite             3870386     11.41%    100.00% # Type of FU issued
system.cpu.iq.FU_type_0::FloatMemRead               0      0.00%    100.00% # Type of FU issued
system.cpu.iq.FU_type_0::FloatMemWrite              0      0.00%    100.00% # Type of FU issued
system.cpu.iq.FU_type_0::IprAccess                  0      0.00%    100.00% # Type of FU issued
system.cpu.iq.FU_type_0::InstPrefetch               0      0.00%    100.00% # Type of FU issued
system.cpu.iq.FU_type_0::total               33933074                       # Type of FU issued
system.cpu.iq.fp_alu_accesses                       0                       # Number of floating point alu accesses
system.cpu.iq.fp_inst_queue_reads                   0                       # Number of floating instruction queue reads
system.cpu.iq.fp_inst_queue_wakeup_accesses            0                       # Number of floating instruction queue wakeup accesses
system.cpu.iq.fp_inst_queue_writes                  0                       # Number of floating instruction queue writes
system.cpu.iq.fu_busy_cnt                      609245                       # FU busy when requested
system.cpu.iq.fu_busy_rate                   0.017954                       # FU busy rate (busy events/executed inst)
system.cpu.iq.fu_full::No_OpClass                   0      0.00%      0.00% # attempts to use FU when none available
system.cpu.iq.fu_full::IntAlu                   23309      3.83%      3.83% # attempts to use FU when none available
system.cpu.iq.fu_full::IntMult                     60      0.01%      3.84% # attempts to use FU when none available
system.cpu.iq.fu_full::IntDiv                       0      0.00%      3.84% # attempts to use FU when none available
system.cpu.iq.fu_full::FloatAdd                     0      0.00%      3.84% # attempts to use FU when none available
system.cpu.iq.fu_full::FloatCmp                     0      0.00%      3.84% # attempts to use FU when none available
system.cpu.iq.fu_full::FloatCvt                     0      0.00%      3.84% # attempts to use FU when none available
system.cpu.iq.fu_full::FloatMult                    0      0.00%      3.84% # attempts to use FU when none available
system.cpu.iq.fu_full::FloatMultAcc                 0      0.00%      3.84% # attempts to use FU when none available
system.cpu.iq.fu_full::FloatDiv                     0      0.00%      3.84% # attempts to use FU when none available
system.cpu.iq.fu_full::FloatMisc                    0      0.00%      3.84% # attempts to use FU when none available
system.cpu.iq.fu_full::FloatSqrt                    0      0.00%      3.84% # attempts to use FU when none available
system.cpu.iq.fu_full::SimdAdd                      0      0.00%      3.84% # attempts to use FU when none available
system.cpu.iq.fu_full::SimdAddAcc                   0      0.00%      3.84% # attempts to use FU when none available
system.cpu.iq.fu_full::SimdAlu                      0      0.00%      3.84% # attempts to use FU when none available
system.cpu.iq.fu_full::SimdCmp                      0      0.00%      3.84% # attempts to use FU when none available
system.cpu.iq.fu_full::SimdCvt                      0      0.00%      3.84% # attempts to use FU when none available
system.cpu.iq.fu_full::SimdMisc                     0      0.00%      3.84% # attempts to use FU when none available
system.cpu.iq.fu_full::SimdMult                     0      0.00%      3.84% # attempts to use FU when none available
system.cpu.iq.fu_full::SimdMultAcc                  0      0.00%      3.84% # attempts to use FU when none available
system.cpu.iq.fu_full::SimdShift                    0      0.00%      3.84% # attempts to use FU when none available
system.cpu.iq.fu_full::SimdShiftAcc                 0      0.00%      3.84% # attempts to use FU when none available
system.cpu.iq.fu_full::SimdDiv                      0      0.00%      3.84% # attempts to use FU when none available
system.cpu.iq.fu_full::SimdSqrt                     0      0.00%      3.84% # attempts to use FU when none available
system.cpu.iq.fu_full::SimdFloatAdd                 0      0.00%      3.84% # attempts to use FU when none available
system.cpu.iq.fu_full::SimdFloatAlu                 0      0.00%      3.84% # attempts to use FU when none available
system.cpu.iq.fu_full::SimdFloatCmp                 0      0.00%      3.84% # attempts to use FU when none available
system.cpu.iq.fu_full::SimdFloatCvt                 0      0.00%      3.84% # attempts to use FU when none available
system.cpu.iq.fu_full::SimdFloatDiv                 0      0.00%      3.84% # attempts to use FU when none available
system.cpu.iq.fu_full::SimdFloatMisc                0      0.00%      3.84% # attempts to use FU when none available
system.cpu.iq.fu_full::SimdFloatMult                0      0.00%      3.84% # attempts to use FU when none available
system.cpu.iq.fu_full::SimdFloatMultAcc             0      0.00%      3.84% # attempts to use FU when none available
system.cpu.iq.fu_full::SimdFloatSqrt                0      0.00%      3.84% # attempts to use FU when none available
system.cpu.iq.fu_full::SimdReduceAdd                0      0.00%      3.84% # attempts to use FU when none available
system.cpu.iq.fu_full::SimdReduceAlu                0      0.00%      3.84% # attempts to use FU when none available
system.cpu.iq.fu_full::SimdReduceCmp                0      0.00%      3.84% # attempts to use FU when none available
system.cpu.iq.fu_full::SimdFloatReduceAdd            0      0.00%      3.84% # attempts to use FU when none available
system.cpu.iq.fu_full::SimdFloatReduceCmp            0      0.00%      3.84% # attempts to use FU when none available
system.cpu.iq.fu_full::SimdAes                      0      0.00%      3.84% # attempts to use FU when none available
system.cpu.iq.fu_full::SimdAesMix                   0      0.00%      3.84% # attempts to use FU when none available
system.cpu.iq.fu_full::SimdSha1Hash                 0      0.00%      3.84% # attempts to use FU when none available
system.cpu.iq.fu_full::SimdSha1Hash2                0      0.00%      3.84% # attempts to use FU when none available
system.cpu.iq.fu_full::SimdSha256Hash               0      0.00%      3.84% # attempts to use FU when none available
system.cpu.iq.fu_full::SimdSha256Hash2              0      0.00%      3.84% # attempts to use FU when none available
system.cpu.iq.fu_full::SimdShaSigma2                0      0.00%      3.84% # attempts to use FU when none available
system.cpu.iq.fu_full::SimdShaSigma3                0      0.00%      3.84% # attempts to use FU when none available
system.cpu.iq.fu_full::SimdPredAlu                  0      0.00%      3.84% # attempts to use FU when none available
system.cpu.iq.fu_full::MemRead                 175213     28.76%     32.59% # attempts to use FU when none available
system.cpu.iq.fu_full::MemWrite                410663     67.41%    100.00% # attempts to use FU when none available
system.cpu.iq.fu_full::FloatMemRead                 0      0.00%    100.00% # attempts to use FU when none available
system.cpu.iq.fu_full::FloatMemWrite                0      0.00%    100.00% # attempts to use FU when none available
system.cpu.iq.fu_full::IprAccess                    0      0.00%    100.00% # attempts to use FU when none available
system.cpu.iq.fu_full::InstPrefetch                 0      0.00%    100.00% # attempts to use FU when none available
system.cpu.iq.int_alu_accesses               34542276                       # Number of integer alu accesses
system.cpu.iq.int_inst_queue_reads           96218256                       # Number of integer instruction queue reads
system.cpu.iq.int_inst_queue_wakeup_accesses     33856937                       # Number of integer instruction queue wakeup accesses
system.cpu.iq.int_inst_queue_writes          34350307                       # Number of integer instruction queue writes
system.cpu.iq.iqInstsAdded                   34004393                       # Number of instructions added to the IQ (excludes non-spec)
system.cpu.iq.iqInstsIssued                  33933074                       # Number of instructions issued
system.cpu.iq.iqNonSpecInstsAdded                 119                       # Number of non-speculative instructions added to the IQ
system.cpu.iq.iqSquashedInstsExamined          345764                       # Number of squashed instructions iterated over during squash; mainly for profiling
system.cpu.iq.iqSquashedInstsIssued               421                       # Number of squashed instructions issued
system.cpu.iq.iqSquashedNonSpecRemoved              2                       # Number of squashed non-spec instructions that were removed
system.cpu.iq.iqSquashedOperandsExamined       598821                       # Number of squashed operands that are examined and possibly removed from graph
system.cpu.iq.issued_per_cycle::samples      27742442                       # Number of insts issued each cycle
system.cpu.iq.issued_per_cycle::mean         1.223147                       # Number of insts issued each cycle
system.cpu.iq.issued_per_cycle::stdev        0.845972                       # Number of insts issued each cycle
system.cpu.iq.issued_per_cycle::underflows            0      0.00%      0.00% # Number of insts issued each cycle
system.cpu.iq.issued_per_cycle::0             5492586     19.80%     19.80% # Number of insts issued each cycle
system.cpu.iq.issued_per_cycle::1            12498474     45.05%     64.85% # Number of insts issued each cycle
system.cpu.iq.issued_per_cycle::2             7917710     28.54%     93.39% # Number of insts issued each cycle
system.cpu.iq.issued_per_cycle::3             1735508      6.26%     99.65% # Number of insts issued each cycle
system.cpu.iq.issued_per_cycle::4               98164      0.35%    100.00% # Number of insts issued each cycle
system.cpu.iq.issued_per_cycle::5                   0      0.00%    100.00% # Number of insts issued each cycle
system.cpu.iq.issued_per_cycle::6                   0      0.00%    100.00% # Number of insts issued each cycle
system.cpu.iq.issued_per_cycle::7                   0      0.00%    100.00% # Number of insts issued each cycle
system.cpu.iq.issued_per_cycle::8                   0      0.00%    100.00% # Number of insts issued each cycle
system.cpu.iq.issued_per_cycle::overflows            0      0.00%    100.00% # Number of insts issued each cycle
system.cpu.iq.issued_per_cycle::min_value            0                       # Number of insts issued each cycle
system.cpu.iq.issued_per_cycle::max_value            4                       # Number of insts issued each cycle
system.cpu.iq.issued_per_cycle::total        27742442                       # Number of insts issued each cycle
system.cpu.iq.rate                           1.220515                       # Inst issue rate
system.cpu.iq.vec_alu_accesses                      0                       # Number of vector alu accesses
system.cpu.iq.vec_inst_queue_reads                  0                       # Number of vector instruction queue reads
system.cpu.iq.vec_inst_queue_wakeup_accesses            0                       # Number of vector instruction queue wakeup accesses
system.cpu.iq.vec_inst_queue_writes                 0                       # Number of vector instruction queue writes
system.cpu.itb.accesses                             0                       # DTB accesses
system.cpu.itb.align_faults                         0                       # Number of TLB faults due to alignment restrictions
system.cpu.itb.domain_faults                        0                       # Number of TLB faults due to domain restrictions
system.cpu.itb.flush_entries                        0                       # Number of entries that have been flushed from TLB
system.cpu.itb.flush_tlb                            0                       # Number of times complete TLB was flushed
system.cpu.itb.flush_tlb_asid                       0                       # Number of times TLB was flushed by ASID
system.cpu.itb.flush_tlb_mva                        0                       # Number of times TLB was flushed by MVA
system.cpu.itb.flush_tlb_mva_asid                   0                       # Number of times TLB was flushed by MVA & ASID
system.cpu.itb.hits                                 0                       # DTB hits
system.cpu.itb.inst_accesses                        0                       # ITB inst accesses
system.cpu.itb.inst_hits                            0                       # ITB inst hits
system.cpu.itb.inst_misses                          0                       # ITB inst misses
system.cpu.itb.misses                               0                       # DTB misses
system.cpu.itb.perms_faults                         0                       # Number of TLB faults due to permissions restrictions
system.cpu.itb.prefetch_faults                      0                       # Number of TLB faults due to prefetch
system.cpu.itb.read_accesses                        0                       # DTB read accesses
system.cpu.itb.read_hits                            0                       # DTB read hits
system.cpu.itb.read_misses                          0                       # DTB read misses
system.cpu.itb.stage2_mmu.stage2_tlb.accesses            0                       # DTB accesses
system.cpu.itb.stage2_mmu.stage2_tlb.align_faults            0                       # Number of TLB faults due to alignment restrictions
system.cpu.itb.stage2_mmu.stage2_tlb.domain_faults            0                       # Number of TLB faults due to domain restrictions
system.cpu.itb.stage2_mmu.stage2_tlb.flush_entries            0                       # Number of entries that have been flushed from TLB
system.cpu.itb.stage2_mmu.stage2_tlb.flush_tlb            0                       # Number of times complete TLB was flushed
system.cpu.itb.stage2_mmu.stage2_tlb.flush_tlb_asid            0                       # Number of times TLB was flushed by ASID
system.cpu.itb.stage2_mmu.stage2_tlb.flush_tlb_mva            0                       # Number of times TLB was flushed by MVA
system.cpu.itb.stage2_mmu.stage2_tlb.flush_tlb_mva_asid            0                       # Number of times TLB was flushed by MVA & ASID
system.cpu.itb.stage2_mmu.stage2_tlb.hits            0                       # DTB hits
system.cpu.itb.stage2_mmu.stage2_tlb.inst_accesses            0                       # ITB inst accesses
system.cpu.itb.stage2_mmu.stage2_tlb.inst_hits            0                       # ITB inst hits
system.cpu.itb.stage2_mmu.stage2_tlb.inst_misses            0                       # ITB inst misses
system.cpu.itb.stage2_mmu.stage2_tlb.misses            0                       # DTB misses
system.cpu.itb.stage2_mmu.stage2_tlb.perms_faults            0                       # Number of TLB faults due to permissions restrictions
system.cpu.itb.stage2_mmu.stage2_tlb.prefetch_faults            0                       # Number of TLB faults due to prefetch
system.cpu.itb.stage2_mmu.stage2_tlb.read_accesses            0                       # DTB read accesses
system.cpu.itb.stage2_mmu.stage2_tlb.read_hits            0                       # DTB read hits
system.cpu.itb.stage2_mmu.stage2_tlb.read_misses            0                       # DTB read misses
system.cpu.itb.stage2_mmu.stage2_tlb.walker.walkRequestOrigin_Requested::Data            0                       # Table walker requests started/completed, data/inst
system.cpu.itb.stage2_mmu.stage2_tlb.walker.walkRequestOrigin_Requested::Inst            0                       # Table walker requests started/completed, data/inst
system.cpu.itb.stage2_mmu.stage2_tlb.walker.walkRequestOrigin_Requested::total            0                       # Table walker requests started/completed, data/inst
system.cpu.itb.stage2_mmu.stage2_tlb.walker.walkRequestOrigin_Completed::Data            0                       # Table walker requests started/completed, data/inst
system.cpu.itb.stage2_mmu.stage2_tlb.walker.walkRequestOrigin_Completed::Inst            0                       # Table walker requests started/completed, data/inst
system.cpu.itb.stage2_mmu.stage2_tlb.walker.walkRequestOrigin_Completed::total            0                       # Table walker requests started/completed, data/inst
system.cpu.itb.stage2_mmu.stage2_tlb.walker.walkRequestOrigin::total            0                       # Table walker requests started/completed, data/inst
system.cpu.itb.stage2_mmu.stage2_tlb.walker.walks            0                       # Table walker walks requested
system.cpu.itb.stage2_mmu.stage2_tlb.write_accesses            0                       # DTB write accesses
system.cpu.itb.stage2_mmu.stage2_tlb.write_hits            0                       # DTB write hits
system.cpu.itb.stage2_mmu.stage2_tlb.write_misses            0                       # DTB write misses
system.cpu.itb.walker.walkRequestOrigin_Requested::Data            0                       # Table walker requests started/completed, data/inst
system.cpu.itb.walker.walkRequestOrigin_Requested::Inst            0                       # Table walker requests started/completed, data/inst
system.cpu.itb.walker.walkRequestOrigin_Requested::total            0                       # Table walker requests started/completed, data/inst
system.cpu.itb.walker.walkRequestOrigin_Completed::Data            0                       # Table walker requests started/completed, data/inst
system.cpu.itb.walker.walkRequestOrigin_Completed::Inst            0                       # Table walker requests started/completed, data/inst
system.cpu.itb.walker.walkRequestOrigin_Completed::total            0                       # Table walker requests started/completed, data/inst
system.cpu.itb.walker.walkRequestOrigin::total            0                       # Table walker requests started/completed, data/inst
system.cpu.itb.walker.walks                         0                       # Table walker walks requested
system.cpu.itb.write_accesses                       0                       # DTB write accesses
system.cpu.itb.write_hits                           0                       # DTB write hits
system.cpu.itb.write_misses                         0                       # DTB write misses
system.cpu.memDep0.conflictingLoads              3564                       # Number of conflicting loads.
system.cpu.memDep0.conflictingStores               14                       # Number of conflicting stores.
system.cpu.memDep0.insertedLoads              8493619                       # Number of loads inserted to the mem dependence unit.
system.cpu.memDep0.insertedStores             3900158                       # Number of stores inserted to the mem dependence unit.
system.cpu.misc_regfile_reads                12298439                       # number of misc regfile reads
system.cpu.misc_regfile_writes                    206                       # number of misc regfile writes
system.cpu.numCycles                         27802251                       # number of cpu cycles simulated
system.cpu.numWorkItemsCompleted                    0                       # number of work items this cpu completed
system.cpu.numWorkItemsStarted                      0                       # number of work items this cpu started
system.cpu.rename.BlockCycles                   70672                       # Number of cycles rename is blocking
system.cpu.rename.CommittedMaps              29927366                       # Number of HB maps that are committed
system.cpu.rename.IdleCycles                 10916470                       # Number of cycles rename is idle
system.cpu.rename.ROBFullEvents                 29918                       # Number of times rename has blocked due to ROB full
system.cpu.rename.RenameLookups             147926504                       # Number of register rename lookups that rename has made
system.cpu.rename.RenamedInsts               34028040                       # Number of instructions processed by rename
system.cpu.rename.RenamedOperands            30237283                       # Number of destination operands rename has renamed
system.cpu.rename.RunCycles                  16635701                       # Number of cycles rename is running
system.cpu.rename.SQFullEvents                  46781                       # Number of times rename has blocked due to SQ full
system.cpu.rename.SquashCycles                  32222                       # Number of cycles rename is squashing
system.cpu.rename.SquashedInsts                 71811                       # Number of squashed instructions processed by rename
system.cpu.rename.UnblockCycles                 84975                       # Number of cycles rename is unblocking
system.cpu.rename.UndoneMaps                   309916                       # Number of HB maps that are undone due to squashing
system.cpu.rename.int_rename_lookups         33447372                       # Number of integer rename lookups
system.cpu.rename.serializeStallCycles           2402                       # count of cycles rename stalled for serializing inst
system.cpu.rename.serializingInsts                 72                       # count of serializing insts renamed
system.cpu.rename.skidInsts                     48969                       # count of insts added to the skid buffer
system.cpu.rename.tempSerializingInsts             66                       # count of temporary serializing insts renamed
system.cpu.rename.vec_rename_lookups               32                       # Number of vector rename lookups
system.cpu.rob.rob_reads                     61320029                       # The number of ROB reads
system.cpu.rob.rob_writes                    67909026                       # The number of ROB writes
system.cpu.timesIdled                             636                       # Number of times that the entire CPU went into an idle state and unscheduled itself
system.cpu.vec_regfile_reads                       32                       # number of vector regfile reads
system.cpu.workload.numSyscalls                    13                       # Number of system calls
system.membus.snoop_filter.hit_multi_requests            0                       # Number of requests hitting in the snoop filter with multiple (>1) holders of the requested data.
system.membus.snoop_filter.hit_multi_snoops            0                       # Number of snoops hitting in the snoop filter with multiple (>1) holders of the requested data.
system.membus.snoop_filter.hit_single_requests            0                       # Number of requests hitting in the snoop filter with a single holder of the requested data.
system.membus.snoop_filter.hit_single_snoops            0                       # Number of snoops hitting in the snoop filter with a single holder of the requested data.
system.membus.snoop_filter.tot_requests          2008                       # Total number of requests made to the snoop filter.
system.membus.snoop_filter.tot_snoops               0                       # Total number of snoops made to the snoop filter.
system.tol2bus.snoop_filter.hit_multi_requests           37                       # Number of requests hitting in the snoop filter with multiple (>1) holders of the requested data.
system.tol2bus.snoop_filter.hit_multi_snoops            0                       # Number of snoops hitting in the snoop filter with multiple (>1) holders of the requested data.
system.tol2bus.snoop_filter.hit_single_requests        34545                       # Number of requests hitting in the snoop filter with a single holder of the requested data.
system.tol2bus.snoop_filter.hit_single_snoops            0                       # Number of snoops hitting in the snoop filter with a single holder of the requested data.
system.tol2bus.snoop_filter.tot_requests        70064                       # Total number of requests made to the snoop filter.
system.tol2bus.snoop_filter.tot_snoops              0                       # Total number of snoops made to the snoop filter.
system.membus.pwrStateResidencyTicks::UNDEFINED  17376406250                       # Cumulative time (in ticks) in various power states
system.membus.trans_dist::ReadResp                872                       # Transaction distribution
system.membus.trans_dist::ReadExReq              1135                       # Transaction distribution
system.membus.trans_dist::ReadExResp             1135                       # Transaction distribution
system.membus.trans_dist::ReadSharedReq           873                       # Transaction distribution
system.membus.pkt_count_system.l2.mem_side::system.mem_ctrls.port         4015                       # Packet count per connected master and slave (bytes)
system.membus.pkt_count::total                   4015                       # Packet count per connected master and slave (bytes)
system.membus.pkt_size_system.l2.mem_side::system.mem_ctrls.port       128448                       # Cumulative packet size per connected master and slave (bytes)
system.membus.pkt_size::total                  128448                       # Cumulative packet size per connected master and slave (bytes)
system.membus.snoops                                0                       # Total snoops (count)
system.membus.snoopTraffic                          0                       # Total snoop traffic (bytes)
system.membus.snoop_fanout::samples              2008                       # Request fanout histogram
system.membus.snoop_fanout::mean                    0                       # Request fanout histogram
system.membus.snoop_fanout::stdev                   0                       # Request fanout histogram
system.membus.snoop_fanout::underflows              0      0.00%      0.00% # Request fanout histogram
system.membus.snoop_fanout::0                    2008    100.00%    100.00% # Request fanout histogram
system.membus.snoop_fanout::1                       0      0.00%    100.00% # Request fanout histogram
system.membus.snoop_fanout::overflows               0      0.00%    100.00% # Request fanout histogram
system.membus.snoop_fanout::min_value               0                       # Request fanout histogram
system.membus.snoop_fanout::max_value               0                       # Request fanout histogram
system.membus.snoop_fanout::total                2008                       # Request fanout histogram
system.membus.respLayer1.occupancy           10615375                       # Layer occupancy (ticks)
system.membus.respLayer1.utilization              0.1                       # Layer utilization (%)
system.membus.reqLayer0.occupancy             2908375                       # Layer occupancy (ticks)
system.membus.reqLayer0.utilization               0.0                       # Layer utilization (%)
system.tol2bus.pwrStateResidencyTicks::UNDEFINED  17376406250                       # Cumulative time (in ticks) in various power states
system.tol2bus.trans_dist::ReadResp             26294                       # Transaction distribution
system.tol2bus.trans_dist::WritebackDirty        34141                       # Transaction distribution
system.tol2bus.trans_dist::WritebackClean          298                       # Transaction distribution
system.tol2bus.trans_dist::CleanEvict              90                       # Transaction distribution
system.tol2bus.trans_dist::ReadExReq             9239                       # Transaction distribution
system.tol2bus.trans_dist::ReadExResp            9239                       # Transaction distribution
system.tol2bus.trans_dist::ReadCleanReq           791                       # Transaction distribution
system.tol2bus.trans_dist::ReadSharedReq        25505                       # Transaction distribution
system.tol2bus.pkt_count_system.cpu.icache.mem_side::system.l2.cpu_side         1879                       # Packet count per connected master and slave (bytes)
system.tol2bus.pkt_count_system.cpu.dcache.mem_side::system.l2.cpu_side       103718                       # Packet count per connected master and slave (bytes)
system.tol2bus.pkt_count::total                105597                       # Packet count per connected master and slave (bytes)
system.tol2bus.pkt_size_system.cpu.icache.mem_side::system.l2.cpu_side        69632                       # Cumulative packet size per connected master and slave (bytes)
system.tol2bus.pkt_size_system.cpu.dcache.mem_side::system.l2.cpu_side      4408576                       # Cumulative packet size per connected master and slave (bytes)
system.tol2bus.pkt_size::total                4478208                       # Cumulative packet size per connected master and slave (bytes)
system.tol2bus.snoops                               0                       # Total snoops (count)
system.tol2bus.snoopTraffic                         0                       # Total snoop traffic (bytes)
system.tol2bus.snoop_fanout::samples            35535                       # Request fanout histogram
system.tol2bus.snoop_fanout::mean            0.001491                       # Request fanout histogram
system.tol2bus.snoop_fanout::stdev           0.038592                       # Request fanout histogram
system.tol2bus.snoop_fanout::underflows             0      0.00%      0.00% # Request fanout histogram
system.tol2bus.snoop_fanout::0                  35482     99.85%     99.85% # Request fanout histogram
system.tol2bus.snoop_fanout::1                     53      0.15%    100.00% # Request fanout histogram
system.tol2bus.snoop_fanout::2                      0      0.00%    100.00% # Request fanout histogram
system.tol2bus.snoop_fanout::overflows              0      0.00%    100.00% # Request fanout histogram
system.tol2bus.snoop_fanout::min_value              0                       # Request fanout histogram
system.tol2bus.snoop_fanout::max_value              1                       # Request fanout histogram
system.tol2bus.snoop_fanout::total              35535                       # Request fanout histogram
system.tol2bus.reqLayer0.occupancy           86838750                       # Layer occupancy (ticks)
system.tol2bus.reqLayer0.utilization              0.5                       # Layer utilization (%)
system.tol2bus.respLayer1.occupancy          65146869                       # Layer occupancy (ticks)
system.tol2bus.respLayer1.utilization             0.4                       # Layer utilization (%)
system.tol2bus.respLayer0.occupancy           1483122                       # Layer occupancy (ticks)
system.tol2bus.respLayer0.utilization             0.0                       # Layer utilization (%)
system.voltage_domain.voltage                       1                       # Voltage in Volts
system.clk_domain.clock                          1000                       # Clock period in ticks
system.l2.pwrStateResidencyTicks::UNDEFINED  17376406250                       # Cumulative time (in ticks) in various power states
system.l2.demand_hits::.cpu.inst                   57                       # number of demand (read+write) hits
system.l2.demand_hits::.cpu.data                33461                       # number of demand (read+write) hits
system.l2.demand_hits::total                    33518                       # number of demand (read+write) hits
system.l2.overall_hits::.cpu.inst                  57                       # number of overall hits
system.l2.overall_hits::.cpu.data               33461                       # number of overall hits
system.l2.overall_hits::total                   33518                       # number of overall hits
system.l2.demand_misses::.cpu.inst                734                       # number of demand (read+write) misses
system.l2.demand_misses::.cpu.data               1283                       # number of demand (read+write) misses
system.l2.demand_misses::total                   2017                       # number of demand (read+write) misses
system.l2.overall_misses::.cpu.inst               734                       # number of overall misses
system.l2.overall_misses::.cpu.data              1283                       # number of overall misses
system.l2.overall_misses::total                  2017                       # number of overall misses
system.l2.demand_miss_latency::.cpu.inst     61053750                       # number of demand (read+write) miss cycles
system.l2.demand_miss_latency::.cpu.data    105518125                       # number of demand (read+write) miss cycles
system.l2.demand_miss_latency::total        166571875                       # number of demand (read+write) miss cycles
system.l2.overall_miss_latency::.cpu.inst     61053750                       # number of overall miss cycles
system.l2.overall_miss_latency::.cpu.data    105518125                       # number of overall miss cycles
system.l2.overall_miss_latency::total       166571875                       # number of overall miss cycles
system.l2.demand_accesses::.cpu.inst              791                       # number of demand (read+write) accesses
system.l2.demand_accesses::.cpu.data            34744                       # number of demand (read+write) accesses
system.l2.demand_accesses::total                35535                       # number of demand (read+write) accesses
system.l2.overall_accesses::.cpu.inst             791                       # number of overall (read+write) accesses
system.l2.overall_accesses::.cpu.data           34744                       # number of overall (read+write) accesses
system.l2.overall_accesses::total               35535                       # number of overall (read+write) accesses
system.l2.demand_miss_rate::.cpu.inst        0.927939                       # miss rate for demand accesses
system.l2.demand_miss_rate::.cpu.data        0.036927                       # miss rate for demand accesses
system.l2.demand_miss_rate::total            0.056761                       # miss rate for demand accesses
system.l2.overall_miss_rate::.cpu.inst       0.927939                       # miss rate for overall accesses
system.l2.overall_miss_rate::.cpu.data       0.036927                       # miss rate for overall accesses
system.l2.overall_miss_rate::total           0.056761                       # miss rate for overall accesses
system.l2.demand_avg_miss_latency::.cpu.inst 83179.495913                       # average overall miss latency
system.l2.demand_avg_miss_latency::.cpu.data 82243.277475                       # average overall miss latency
system.l2.demand_avg_miss_latency::total 82583.973723                       # average overall miss latency
system.l2.overall_avg_miss_latency::.cpu.inst 83179.495913                       # average overall miss latency
system.l2.overall_avg_miss_latency::.cpu.data 82243.277475                       # average overall miss latency
system.l2.overall_avg_miss_latency::total 82583.973723                       # average overall miss latency
system.l2.blocked_cycles::no_mshrs                  0                       # number of cycles access was blocked
system.l2.blocked_cycles::no_targets                0                       # number of cycles access was blocked
system.l2.blocked::no_mshrs                         0                       # number of cycles access was blocked
system.l2.blocked::no_targets                       0                       # number of cycles access was blocked
system.l2.avg_blocked_cycles::no_mshrs            nan                       # average number of cycles each access was blocked
system.l2.avg_blocked_cycles::no_targets          nan                       # average number of cycles each access was blocked
system.l2.demand_mshr_hits::.cpu.inst               3                       # number of demand (read+write) MSHR hits
system.l2.demand_mshr_hits::.cpu.data               6                       # number of demand (read+write) MSHR hits
system.l2.demand_mshr_hits::total                   9                       # number of demand (read+write) MSHR hits
system.l2.overall_mshr_hits::.cpu.inst              3                       # number of overall MSHR hits
system.l2.overall_mshr_hits::.cpu.data              6                       # number of overall MSHR hits
system.l2.overall_mshr_hits::total                  9                       # number of overall MSHR hits
system.l2.demand_mshr_misses::.cpu.inst           731                       # number of demand (read+write) MSHR misses
system.l2.demand_mshr_misses::.cpu.data          1277                       # number of demand (read+write) MSHR misses
system.l2.demand_mshr_misses::total              2008                       # number of demand (read+write) MSHR misses
system.l2.overall_mshr_misses::.cpu.inst          731                       # number of overall MSHR misses
system.l2.overall_mshr_misses::.cpu.data         1277                       # number of overall MSHR misses
system.l2.overall_mshr_misses::total             2008                       # number of overall MSHR misses
system.l2.demand_mshr_miss_latency::.cpu.inst     51500000                       # number of demand (read+write) MSHR miss cycles
system.l2.demand_mshr_miss_latency::.cpu.data     88774000                       # number of demand (read+write) MSHR miss cycles
system.l2.demand_mshr_miss_latency::total    140274000                       # number of demand (read+write) MSHR miss cycles
system.l2.overall_mshr_miss_latency::.cpu.inst     51500000                       # number of overall MSHR miss cycles
system.l2.overall_mshr_miss_latency::.cpu.data     88774000                       # number of overall MSHR miss cycles
system.l2.overall_mshr_miss_latency::total    140274000                       # number of overall MSHR miss cycles
system.l2.demand_mshr_miss_rate::.cpu.inst     0.924147                       # mshr miss rate for demand accesses
system.l2.demand_mshr_miss_rate::.cpu.data     0.036755                       # mshr miss rate for demand accesses
system.l2.demand_mshr_miss_rate::total       0.056508                       # mshr miss rate for demand accesses
system.l2.overall_mshr_miss_rate::.cpu.inst     0.924147                       # mshr miss rate for overall accesses
system.l2.overall_mshr_miss_rate::.cpu.data     0.036755                       # mshr miss rate for overall accesses
system.l2.overall_mshr_miss_rate::total      0.056508                       # mshr miss rate for overall accesses
system.l2.demand_avg_mshr_miss_latency::.cpu.inst 70451.436389                       # average overall mshr miss latency
system.l2.demand_avg_mshr_miss_latency::.cpu.data 69517.619421                       # average overall mshr miss latency
system.l2.demand_avg_mshr_miss_latency::total 69857.569721                       # average overall mshr miss latency
system.l2.overall_avg_mshr_miss_latency::.cpu.inst 70451.436389                       # average overall mshr miss latency
system.l2.overall_avg_mshr_miss_latency::.cpu.data 69517.619421                       # average overall mshr miss latency
system.l2.overall_avg_mshr_miss_latency::total 69857.569721                       # average overall mshr miss latency
system.l2.replacements                              0                       # number of replacements
system.l2.WritebackDirty_hits::.writebacks        34141                       # number of WritebackDirty hits
system.l2.WritebackDirty_hits::total            34141                       # number of WritebackDirty hits
system.l2.WritebackDirty_accesses::.writebacks        34141                       # number of WritebackDirty accesses(hits+misses)
system.l2.WritebackDirty_accesses::total        34141                       # number of WritebackDirty accesses(hits+misses)
system.l2.WritebackClean_hits::.writebacks          283                       # number of WritebackClean hits
system.l2.WritebackClean_hits::total              283                       # number of WritebackClean hits
system.l2.WritebackClean_accesses::.writebacks          283                       # number of WritebackClean accesses(hits+misses)
system.l2.WritebackClean_accesses::total          283                       # number of WritebackClean accesses(hits+misses)
system.l2.ReadExReq_hits::.cpu.data              8104                       # number of ReadExReq hits
system.l2.ReadExReq_hits::total                  8104                       # number of ReadExReq hits
system.l2.ReadExReq_misses::.cpu.data            1135                       # number of ReadExReq misses
system.l2.ReadExReq_misses::total                1135                       # number of ReadExReq misses
system.l2.ReadExReq_miss_latency::.cpu.data     92476875                       # number of ReadExReq miss cycles
system.l2.ReadExReq_miss_latency::total      92476875                       # number of ReadExReq miss cycles
system.l2.ReadExReq_accesses::.cpu.data          9239                       # number of ReadExReq accesses(hits+misses)
system.l2.ReadExReq_accesses::total              9239                       # number of ReadExReq accesses(hits+misses)
system.l2.ReadExReq_miss_rate::.cpu.data     0.122849                       # miss rate for ReadExReq accesses
system.l2.ReadExReq_miss_rate::total         0.122849                       # miss rate for ReadExReq accesses
system.l2.ReadExReq_avg_miss_latency::.cpu.data 81477.422907                       # average ReadExReq miss latency
system.l2.ReadExReq_avg_miss_latency::total 81477.422907                       # average ReadExReq miss latency
system.l2.ReadExReq_mshr_misses::.cpu.data         1135                       # number of ReadExReq MSHR misses
system.l2.ReadExReq_mshr_misses::total           1135                       # number of ReadExReq MSHR misses
system.l2.ReadExReq_mshr_miss_latency::.cpu.data     78013625                       # number of ReadExReq MSHR miss cycles
system.l2.ReadExReq_mshr_miss_latency::total     78013625                       # number of ReadExReq MSHR miss cycles
system.l2.ReadExReq_mshr_miss_rate::.cpu.data     0.122849                       # mshr miss rate for ReadExReq accesses
system.l2.ReadExReq_mshr_miss_rate::total     0.122849                       # mshr miss rate for ReadExReq accesses
system.l2.ReadExReq_avg_mshr_miss_latency::.cpu.data 68734.471366                       # average ReadExReq mshr miss latency
system.l2.ReadExReq_avg_mshr_miss_latency::total 68734.471366                       # average ReadExReq mshr miss latency
system.l2.ReadCleanReq_hits::.cpu.inst             57                       # number of ReadCleanReq hits
system.l2.ReadCleanReq_hits::total                 57                       # number of ReadCleanReq hits
system.l2.ReadCleanReq_misses::.cpu.inst          734                       # number of ReadCleanReq misses
system.l2.ReadCleanReq_misses::total              734                       # number of ReadCleanReq misses
system.l2.ReadCleanReq_miss_latency::.cpu.inst     61053750                       # number of ReadCleanReq miss cycles
system.l2.ReadCleanReq_miss_latency::total     61053750                       # number of ReadCleanReq miss cycles
system.l2.ReadCleanReq_accesses::.cpu.inst          791                       # number of ReadCleanReq accesses(hits+misses)
system.l2.ReadCleanReq_accesses::total            791                       # number of ReadCleanReq accesses(hits+misses)
system.l2.ReadCleanReq_miss_rate::.cpu.inst     0.927939                       # miss rate for ReadCleanReq accesses
system.l2.ReadCleanReq_miss_rate::total      0.927939                       # miss rate for ReadCleanReq accesses
system.l2.ReadCleanReq_avg_miss_latency::.cpu.inst 83179.495913                       # average ReadCleanReq miss latency
system.l2.ReadCleanReq_avg_miss_latency::total 83179.495913                       # average ReadCleanReq miss latency
system.l2.ReadCleanReq_mshr_hits::.cpu.inst            3                       # number of ReadCleanReq MSHR hits
system.l2.ReadCleanReq_mshr_hits::total             3                       # number of ReadCleanReq MSHR hits
system.l2.ReadCleanReq_mshr_misses::.cpu.inst          731                       # number of ReadCleanReq MSHR misses
system.l2.ReadCleanReq_mshr_misses::total          731                       # number of ReadCleanReq MSHR misses
system.l2.ReadCleanReq_mshr_miss_latency::.cpu.inst     51500000                       # number of ReadCleanReq MSHR miss cycles
system.l2.ReadCleanReq_mshr_miss_latency::total     51500000                       # number of ReadCleanReq MSHR miss cycles
system.l2.ReadCleanReq_mshr_miss_rate::.cpu.inst     0.924147                       # mshr miss rate for ReadCleanReq accesses
system.l2.ReadCleanReq_mshr_miss_rate::total     0.924147                       # mshr miss rate for ReadCleanReq accesses
system.l2.ReadCleanReq_avg_mshr_miss_latency::.cpu.inst 70451.436389                       # average ReadCleanReq mshr miss latency
system.l2.ReadCleanReq_avg_mshr_miss_latency::total 70451.436389                       # average ReadCleanReq mshr miss latency
[...]
system.cpu.icache.ReadReq_accesses::total     10864774                       # number of ReadReq accesses(hits+misses)
system.cpu.icache.ReadReq_miss_rate::.cpu.inst     0.000087                       # miss rate for ReadReq accesses
system.cpu.icache.ReadReq_miss_rate::total     0.000087                       # miss rate for ReadReq accesses
system.cpu.icache.ReadReq_avg_miss_latency::.cpu.inst 77730.504742                       # average ReadReq miss latency
system.cpu.icache.ReadReq_avg_miss_latency::total 77730.504742                       # average ReadReq miss latency
system.cpu.icache.ReadReq_mshr_hits::.cpu.inst          158                       # number of ReadReq MSHR hits
system.cpu.icache.ReadReq_mshr_hits::total          158                       # number of ReadReq MSHR hits
system.cpu.icache.ReadReq_mshr_misses::.cpu.inst          791                       # number of ReadReq MSHR misses
system.cpu.icache.ReadReq_mshr_misses::total          791                       # number of ReadReq MSHR misses
system.cpu.icache.ReadReq_mshr_miss_latency::.cpu.inst     63307500                       # number of ReadReq MSHR miss cycles
system.cpu.icache.ReadReq_mshr_miss_latency::total     63307500                       # number of ReadReq MSHR miss cycles
system.cpu.icache.ReadReq_mshr_miss_rate::.cpu.inst     0.000073                       # mshr miss rate for ReadReq accesses
system.cpu.icache.ReadReq_mshr_miss_rate::total     0.000073                       # mshr miss rate for ReadReq accesses
system.cpu.icache.ReadReq_avg_mshr_miss_latency::.cpu.inst 80034.766119                       # average ReadReq mshr miss latency
system.cpu.icache.ReadReq_avg_mshr_miss_latency::total 80034.766119                       # average ReadReq mshr miss latency
system.cpu.icache.tags.pwrStateResidencyTicks::UNDEFINED  17376406250                       # Cumulative time (in ticks) in various power states
system.cpu.icache.tags.tagsinuse           413.441576                       # Cycle average of tags in use
system.cpu.icache.tags.total_refs            10864615                       # Total number of references to valid blocks.
system.cpu.icache.tags.sampled_refs               790                       # Sample count of references to valid blocks.
system.cpu.icache.tags.avg_refs          13752.677215                       # Average number of references to valid blocks.
system.cpu.icache.tags.warmup_cycle             91250                       # Cycle when the warmup percentage was hit.
system.cpu.icache.tags.occ_blocks::.cpu.inst   413.441576                       # Average occupied blocks per requestor
system.cpu.icache.tags.occ_percent::.cpu.inst     0.807503                       # Average percentage of cache occupancy
system.cpu.icache.tags.occ_percent::total     0.807503                       # Average percentage of cache occupancy
system.cpu.icache.tags.occ_task_id_blocks::1024          492                       # Occupied blocks per task id
system.cpu.icache.tags.age_task_id_blocks_1024::0           76                       # Occupied blocks per task id
system.cpu.icache.tags.age_task_id_blocks_1024::1          186                       # Occupied blocks per task id
system.cpu.icache.tags.age_task_id_blocks_1024::4          230                       # Occupied blocks per task id
system.cpu.icache.tags.occ_task_id_percent::1024     0.960938                       # Percentage of cache occupancy per task id
system.cpu.icache.tags.tag_accesses          43459886                       # Number of tag accesses
system.cpu.icache.tags.data_accesses         43459886                       # Number of data accesses
system.cpu.dtb.walker.pwrStateResidencyTicks::UNDEFINED  17376406250                       # Cumulative time (in ticks) in various power states
system.cpu.dtb.stage2_mmu.stage2_tlb.walker.pwrStateResidencyTicks::UNDEFINED  17376406250                       # Cumulative time (in ticks) in various power states
system.cpu.itb.walker.pwrStateResidencyTicks::UNDEFINED  17376406250                       # Cumulative time (in ticks) in various power states
system.cpu.itb.stage2_mmu.stage2_tlb.walker.pwrStateResidencyTicks::UNDEFINED  17376406250                       # Cumulative time (in ticks) in various power states
system.cpu.dcache.pwrStateResidencyTicks::UNDEFINED  17376406250                       # Cumulative time (in ticks) in various power states
system.cpu.dcache.demand_hits::.cpu.data     12099715                       # number of demand (read+write) hits
system.cpu.dcache.demand_hits::total         12099715                       # number of demand (read+write) hits
system.cpu.dcache.overall_hits::.cpu.data     12099715                       # number of overall hits
system.cpu.dcache.overall_hits::total        12099715                       # number of overall hits
system.cpu.dcache.demand_misses::.cpu.data        43685                       # number of demand (read+write) misses
system.cpu.dcache.demand_misses::total          43685                       # number of demand (read+write) misses
system.cpu.dcache.overall_misses::.cpu.data        43685                       # number of overall misses
system.cpu.dcache.overall_misses::total         43685                       # number of overall misses
system.cpu.dcache.demand_miss_latency::.cpu.data    814772499                       # number of demand (read+write) miss cycles
system.cpu.dcache.demand_miss_latency::total    814772499                       # number of demand (read+write) miss cycles
system.cpu.dcache.overall_miss_latency::.cpu.data    814772499                       # number of overall miss cycles
system.cpu.dcache.overall_miss_latency::total    814772499                       # number of overall miss cycles
system.cpu.dcache.demand_accesses::.cpu.data     12143400                       # number of demand (read+write) accesses
system.cpu.dcache.demand_accesses::total     12143400                       # number of demand (read+write) accesses
system.cpu.dcache.overall_accesses::.cpu.data     12143400                       # number of overall (read+write) accesses
system.cpu.dcache.overall_accesses::total     12143400                       # number of overall (read+write) accesses
system.cpu.dcache.demand_miss_rate::.cpu.data     0.003597                       # miss rate for demand accesses
system.cpu.dcache.demand_miss_rate::total     0.003597                       # miss rate for demand accesses
system.cpu.dcache.overall_miss_rate::.cpu.data     0.003597                       # miss rate for overall accesses
system.cpu.dcache.overall_miss_rate::total     0.003597                       # miss rate for overall accesses
system.cpu.dcache.demand_avg_miss_latency::.cpu.data 18651.081584                       # average overall miss latency
system.cpu.dcache.demand_avg_miss_latency::total 18651.081584                       # average overall miss latency
system.cpu.dcache.overall_avg_miss_latency::.cpu.data 18651.081584                       # average overall miss latency
system.cpu.dcache.overall_avg_miss_latency::total 18651.081584                       # average overall miss latency
system.cpu.dcache.blocked_cycles::no_mshrs          227                       # number of cycles access was blocked
system.cpu.dcache.blocked_cycles::no_targets            0                       # number of cycles access was blocked
system.cpu.dcache.blocked::no_mshrs                 7                       # number of cycles access was blocked
system.cpu.dcache.blocked::no_targets               0                       # number of cycles access was blocked
system.cpu.dcache.avg_blocked_cycles::no_mshrs    32.428571                       # average number of cycles each access was blocked
system.cpu.dcache.avg_blocked_cycles::no_targets          nan                       # average number of cycles each access was blocked
system.cpu.dcache.writebacks::.writebacks        34141                       # number of writebacks
system.cpu.dcache.writebacks::total             34141                       # number of writebacks
system.cpu.dcache.demand_mshr_hits::.cpu.data         8941                       # number of demand (read+write) MSHR hits
system.cpu.dcache.demand_mshr_hits::total         8941                       # number of demand (read+write) MSHR hits
system.cpu.dcache.overall_mshr_hits::.cpu.data         8941                       # number of overall MSHR hits
system.cpu.dcache.overall_mshr_hits::total         8941                       # number of overall MSHR hits
system.cpu.dcache.demand_mshr_misses::.cpu.data        34744                       # number of demand (read+write) MSHR misses
system.cpu.dcache.demand_mshr_misses::total        34744                       # number of demand (read+write) MSHR misses
system.cpu.dcache.overall_mshr_misses::.cpu.data        34744                       # number of overall MSHR misses
system.cpu.dcache.overall_mshr_misses::total        34744                       # number of overall MSHR misses
system.cpu.dcache.demand_mshr_miss_latency::.cpu.data    610035625                       # number of demand (read+write) MSHR miss cycles
system.cpu.dcache.demand_mshr_miss_latency::total    610035625                       # number of demand (read+write) MSHR miss cycles
system.cpu.dcache.overall_mshr_miss_latency::.cpu.data    610035625                       # number of overall MSHR miss cycles
system.cpu.dcache.overall_mshr_miss_latency::total    610035625                       # number of overall MSHR miss cycles
system.cpu.dcache.demand_mshr_miss_rate::.cpu.data     0.002861                       # mshr miss rate for demand accesses
system.cpu.dcache.demand_mshr_miss_rate::total     0.002861                       # mshr miss rate for demand accesses
system.cpu.dcache.overall_mshr_miss_rate::.cpu.data     0.002861                       # mshr miss rate for overall accesses
system.cpu.dcache.overall_mshr_miss_rate::total     0.002861                       # mshr miss rate for overall accesses
system.cpu.dcache.demand_avg_mshr_miss_latency::.cpu.data 17558.013614                       # average overall mshr miss latency
system.cpu.dcache.demand_avg_mshr_miss_latency::total 17558.013614                       # average overall mshr miss latency
system.cpu.dcache.overall_avg_mshr_miss_latency::.cpu.data 17558.013614                       # average overall mshr miss latency
system.cpu.dcache.overall_avg_mshr_miss_latency::total 17558.013614                       # average overall mshr miss latency
system.cpu.dcache.replacements                  34231                       # number of replacements
system.cpu.dcache.ReadReq_hits::.cpu.data      8366073                       # number of ReadReq hits
system.cpu.dcache.ReadReq_hits::total         8366073                       # number of ReadReq hits
system.cpu.dcache.ReadReq_misses::.cpu.data        30232                       # number of ReadReq misses
system.cpu.dcache.ReadReq_misses::total         30232                       # number of ReadReq misses
system.cpu.dcache.ReadReq_miss_latency::.cpu.data    505734375                       # number of ReadReq miss cycles
system.cpu.dcache.ReadReq_miss_latency::total    505734375                       # number of ReadReq miss cycles
system.cpu.dcache.ReadReq_accesses::.cpu.data      8396305                       # number of ReadReq accesses(hits+misses)
system.cpu.dcache.ReadReq_accesses::total      8396305                       # number of ReadReq accesses(hits+misses)
system.cpu.dcache.ReadReq_miss_rate::.cpu.data     0.003601                       # miss rate for ReadReq accesses
system.cpu.dcache.ReadReq_miss_rate::total     0.003601                       # miss rate for ReadReq accesses
system.cpu.dcache.ReadReq_avg_miss_latency::.cpu.data 16728.445852                       # average ReadReq miss latency
system.cpu.dcache.ReadReq_avg_miss_latency::total 16728.445852                       # average ReadReq miss latency
system.cpu.dcache.ReadReq_mshr_hits::.cpu.data         4727                       # number of ReadReq MSHR hits
system.cpu.dcache.ReadReq_mshr_hits::total         4727                       # number of ReadReq MSHR hits
system.cpu.dcache.ReadReq_mshr_misses::.cpu.data        25505                       # number of ReadReq MSHR misses
system.cpu.dcache.ReadReq_mshr_misses::total        25505                       # number of ReadReq MSHR misses
system.cpu.dcache.ReadReq_mshr_miss_latency::.cpu.data    393710625                       # number of ReadReq MSHR miss cycles
system.cpu.dcache.ReadReq_mshr_miss_latency::total    393710625                       # number of ReadReq MSHR miss cycles
system.cpu.dcache.ReadReq_mshr_miss_rate::.cpu.data     0.003038                       # mshr miss rate for ReadReq accesses
system.cpu.dcache.ReadReq_mshr_miss_rate::total     0.003038                       # mshr miss rate for ReadReq accesses
system.cpu.dcache.ReadReq_avg_mshr_miss_latency::.cpu.data 15436.605568                       # average ReadReq mshr miss latency
system.cpu.dcache.ReadReq_avg_mshr_miss_latency::total 15436.605568                       # average ReadReq mshr miss latency
system.cpu.dcache.WriteReq_hits::.cpu.data      3733642                       # number of WriteReq hits
system.cpu.dcache.WriteReq_hits::total        3733642                       # number of WriteReq hits
system.cpu.dcache.WriteReq_misses::.cpu.data        13453                       # number of WriteReq misses
system.cpu.dcache.WriteReq_misses::total        13453                       # number of WriteReq misses
system.cpu.dcache.WriteReq_miss_latency::.cpu.data    309038124                       # number of WriteReq miss cycles
system.cpu.dcache.WriteReq_miss_latency::total    309038124                       # number of WriteReq miss cycles
system.cpu.dcache.WriteReq_accesses::.cpu.data      3747095                       # number of WriteReq accesses(hits+misses)
system.cpu.dcache.WriteReq_accesses::total      3747095                       # number of WriteReq accesses(hits+misses)
system.cpu.dcache.WriteReq_miss_rate::.cpu.data     0.003590                       # miss rate for WriteReq accesses
system.cpu.dcache.WriteReq_miss_rate::total     0.003590                       # miss rate for WriteReq accesses
system.cpu.dcache.WriteReq_avg_miss_latency::.cpu.data 22971.688397                       # average WriteReq miss latency
system.cpu.dcache.WriteReq_avg_miss_latency::total 22971.688397                       # average WriteReq miss latency
system.cpu.dcache.WriteReq_mshr_hits::.cpu.data         4214                       # number of WriteReq MSHR hits
system.cpu.dcache.WriteReq_mshr_hits::total         4214                       # number of WriteReq MSHR hits
system.cpu.dcache.WriteReq_mshr_misses::.cpu.data         9239                       # number of WriteReq MSHR misses
system.cpu.dcache.WriteReq_mshr_misses::total         9239                       # number of WriteReq MSHR misses
system.cpu.dcache.WriteReq_mshr_miss_latency::.cpu.data    216325000                       # number of WriteReq MSHR miss cycles
system.cpu.dcache.WriteReq_mshr_miss_latency::total    216325000                       # number of WriteReq MSHR miss cycles
system.cpu.dcache.WriteReq_mshr_miss_rate::.cpu.data     0.002466                       # mshr miss rate for WriteReq accesses
system.cpu.dcache.WriteReq_mshr_miss_rate::total     0.002466                       # mshr miss rate for WriteReq accesses
system.cpu.dcache.WriteReq_avg_mshr_miss_latency::.cpu.data 23414.330555                       # average WriteReq mshr miss latency
system.cpu.dcache.WriteReq_avg_mshr_miss_latency::total 23414.330555                       # average WriteReq mshr miss latency
system.cpu.dcache.LoadLockedReq_hits::.cpu.data           50                       # number of LoadLockedReq hits
system.cpu.dcache.LoadLockedReq_hits::total           50                       # number of LoadLockedReq hits
system.cpu.dcache.LoadLockedReq_misses::.cpu.data            2                       # number of LoadLockedReq misses
system.cpu.dcache.LoadLockedReq_misses::total            2                       # number of LoadLockedReq misses
system.cpu.dcache.LoadLockedReq_miss_latency::.cpu.data       133125                       # number of LoadLockedReq miss cycles
system.cpu.dcache.LoadLockedReq_miss_latency::total       133125                       # number of LoadLockedReq miss cycles
system.cpu.dcache.LoadLockedReq_accesses::.cpu.data           52                       # number of LoadLockedReq accesses(hits+misses)
system.cpu.dcache.LoadLockedReq_accesses::total           52                       # number of LoadLockedReq accesses(hits+misses)
system.cpu.dcache.LoadLockedReq_miss_rate::.cpu.data     0.038462                       # miss rate for LoadLockedReq accesses
system.cpu.dcache.LoadLockedReq_miss_rate::total     0.038462                       # miss rate for LoadLockedReq accesses
system.cpu.dcache.LoadLockedReq_avg_miss_latency::.cpu.data 66562.500000                       # average LoadLockedReq miss latency
system.cpu.dcache.LoadLockedReq_avg_miss_latency::total 66562.500000                       # average LoadLockedReq miss latency
system.cpu.dcache.LoadLockedReq_mshr_hits::.cpu.data            2                       # number of LoadLockedReq MSHR hits
system.cpu.dcache.LoadLockedReq_mshr_hits::total            2                       # number of LoadLockedReq MSHR hits
system.cpu.dcache.StoreCondReq_hits::.cpu.data           51                       # number of StoreCondReq hits
system.cpu.dcache.StoreCondReq_hits::total           51                       # number of StoreCondReq hits
system.cpu.dcache.StoreCondReq_accesses::.cpu.data           51                       # number of StoreCondReq accesses(hits+misses)
system.cpu.dcache.StoreCondReq_accesses::total           51                       # number of StoreCondReq accesses(hits+misses)
system.cpu.dcache.tags.pwrStateResidencyTicks::UNDEFINED  17376406250                       # Cumulative time (in ticks) in various power states
system.cpu.dcache.tags.tagsinuse           510.441766                       # Cycle average of tags in use
system.cpu.dcache.tags.total_refs            12134559                       # Total number of references to valid blocks.
system.cpu.dcache.tags.sampled_refs             34743                       # Sample count of references to valid blocks.
system.cpu.dcache.tags.avg_refs            349.266298                       # Average number of references to valid blocks.
system.cpu.dcache.tags.warmup_cycle            173750                       # Cycle when the warmup percentage was hit.
system.cpu.dcache.tags.occ_blocks::.cpu.data   510.441766                       # Average occupied blocks per requestor
system.cpu.dcache.tags.occ_percent::.cpu.data     0.996957                       # Average percentage of cache occupancy
system.cpu.dcache.tags.occ_percent::total     0.996957                       # Average percentage of cache occupancy
system.cpu.dcache.tags.occ_task_id_blocks::1024          512                       # Occupied blocks per task id
system.cpu.dcache.tags.age_task_id_blocks_1024::0           40                       # Occupied blocks per task id
system.cpu.dcache.tags.age_task_id_blocks_1024::1           53                       # Occupied blocks per task id
system.cpu.dcache.tags.age_task_id_blocks_1024::4          419                       # Occupied blocks per task id
system.cpu.dcache.tags.occ_task_id_percent::1024            1                       # Percentage of cache occupancy per task id
system.cpu.dcache.tags.tag_accesses          48608755                       # Number of tag accesses
system.cpu.dcache.tags.data_accesses         48608755                       # Number of data accesses

---------- End Simulation Statistics   ----------
