
---------- Begin Simulation Statistics ----------
final_tick                                38901231875                       # Number of ticks from beginning of simulation (restored from checkpoints and never reset)
host_inst_rate                                 307723                       # Simulator instruction rate (inst/s)
host_mem_usage                                 678112                       # Number of bytes of host memory used
host_op_rate                                   328107                       # Simulator op (including micro ops) rate (op/s)
host_seconds                                   235.59                       # Real time elapsed on the host
host_tick_rate                              165120121                       # Simulator tick rate (ticks/s)
sim_freq                                 1000000000000                       # Frequency of simulated ticks
sim_insts                                    72497445                       # Number of instructions simulated
sim_ops                                      77299826                       # Number of ops (including micro ops) simulated
sim_seconds                                  0.038901                       # Number of seconds simulated
sim_ticks                                 38901231875                       # Number of ticks simulated
system.cpu.branchPred.BTBCorrect                    0                       # Number of correct BTB predictions (this stat may not work properly.
system.cpu.branchPred.BTBHitPct             88.487263                       # BTB Hit Percentage
system.cpu.branchPred.BTBHits                 4732951                       # Number of BTB hits
system.cpu.branchPred.BTBLookups              5348737                       # Number of BTB lookups
system.cpu.branchPred.RASInCorrect                163                       # Number of incorrect RAS predictions.
system.cpu.branchPred.condIncorrect            127774                       # Number of conditional branches incorrect
system.cpu.branchPred.condPredicted           6612851                       # Number of conditional branches predicted
system.cpu.branchPred.indirectHits             463564                       # Number of indirect target hits.
system.cpu.branchPred.indirectLookups          464701                       # Number of indirect predictor lookups.
system.cpu.branchPred.indirectMisses             1137                       # Number of indirect misses.
system.cpu.branchPred.lookups                10662135                       # Number of BP lookups
system.cpu.branchPred.usedRAS                 1780524                       # Number of times the RAS was used to get a target.
system.cpu.branchPredindirectMispredicted        56750                       # Number of mispredicted indirect branches.
system.cpu.cc_regfile_reads                 261100995                       # number of cc regfile reads
system.cpu.cc_regfile_writes                 38750221                       # number of cc regfile writes
system.cpu.commit.amos                              0                       # Number of atomic instructions committed
system.cpu.commit.branchMispredicts            127300                       # The number of times a branch was mispredicted
system.cpu.commit.branches                   10448354                       # Number of branches committed
system.cpu.commit.bw_lim_events                183325                       # number cycles where commit BW limit reached
system.cpu.commit.commitNonSpecStalls             117                       # The number of times commit has been forced to stall to communicate backwards
system.cpu.commit.commitSquashedInsts          663766                       # The number of squashed insts skipped by commit
system.cpu.commit.committedInsts             72497445                       # Number of instructions committed
system.cpu.commit.committedOps               77299826                       # Number of ops (including micro ops) committed
system.cpu.commit.committed_per_cycle::samples     62028048                       # Number of insts commited each cycle
system.cpu.commit.committed_per_cycle::mean     1.246208                       # Number of insts commited each cycle
system.cpu.commit.committed_per_cycle::stdev     1.304940                       # Number of insts commited each cycle
system.cpu.commit.committed_per_cycle::underflows            0      0.00%      0.00% # Number of insts commited each cycle
system.cpu.commit.committed_per_cycle::0     18002396     29.02%     29.02% # Number of insts commited each cycle
system.cpu.commit.committed_per_cycle::1     26347743     42.48%     71.50% # Number of insts commited each cycle
system.cpu.commit.committed_per_cycle::2      9781117     15.77%     87.27% # Number of insts commited each cycle
system.cpu.commit.committed_per_cycle::3      3790740      6.11%     93.38% # Number of insts commited each cycle
system.cpu.commit.committed_per_cycle::4      1942779      3.13%     96.51% # Number of insts commited each cycle
system.cpu.commit.committed_per_cycle::5      1285011      2.07%     98.58% # Number of insts commited each cycle
system.cpu.commit.committed_per_cycle::6       509701      0.82%     99.41% # Number of insts commited each cycle
system.cpu.commit.committed_per_cycle::7       185236      0.30%     99.70% # Number of insts commited each cycle
system.cpu.commit.committed_per_cycle::8       183325      0.30%    100.00% # Number of insts commited each cycle
system.cpu.commit.committed_per_cycle::overflows            0      0.00%    100.00% # Number of insts commited each cycle
system.cpu.commit.committed_per_cycle::min_value            0                       # Number of insts commited each cycle
system.cpu.commit.committed_per_cycle::max_value            8                       # Number of insts commited each cycle
system.cpu.commit.committed_per_cycle::total     62028048                       # Number of insts commited each cycle
system.cpu.commit.fp_insts                          0                       # Number of committed floating point instructions.
system.cpu.commit.function_calls              2070554                       # Number of function calls committed.
system.cpu.commit.int_insts                  71607231                       # Number of committed integer instructions.
system.cpu.commit.loads                       8670131                       # Number of loads committed
system.cpu.commit.membars                          52                       # Number of memory barriers committed
system.cpu.commit.op_class_0::No_OpClass            0      0.00%      0.00% # Class of committed instruction
system.cpu.commit.op_class_0::IntAlu         62457705     80.80%     80.80% # Class of committed instruction
system.cpu.commit.op_class_0::IntMult          913861      1.18%     81.98% # Class of committed instruction
system.cpu.commit.op_class_0::IntDiv                0      0.00%     81.98% # Class of committed instruction
system.cpu.commit.op_class_0::FloatAdd              0      0.00%     81.98% # Class of committed instruction
system.cpu.commit.op_class_0::FloatCmp              0      0.00%     81.98% # Class of committed instruction
system.cpu.commit.op_class_0::FloatCvt              0      0.00%     81.98% # Class of committed instruction
system.cpu.commit.op_class_0::FloatMult             0      0.00%     81.98% # Class of committed instruction
system.cpu.commit.op_class_0::FloatMultAcc            0      0.00%     81.98% # Class of committed instruction
system.cpu.commit.op_class_0::FloatDiv              0      0.00%     81.98% # Class of committed instruction
system.cpu.commit.op_class_0::FloatMisc             0      0.00%     81.98% # Class of committed instruction
system.cpu.commit.op_class_0::FloatSqrt             0      0.00%     81.98% # Class of committed instruction
system.cpu.commit.op_class_0::SimdAdd               0      0.00%     81.98% # Class of committed instruction
system.cpu.commit.op_class_0::SimdAddAcc            0      0.00%     81.98% # Class of committed instruction
system.cpu.commit.op_class_0::SimdAlu               0      0.00%     81.98% # Class of committed instruction
system.cpu.commit.op_class_0::SimdCmp               0      0.00%     81.98% # Class of committed instruction
system.cpu.commit.op_class_0::SimdCvt               0      0.00%     81.98% # Class of committed instruction
system.cpu.commit.op_class_0::SimdMisc              0      0.00%     81.98% # Class of committed instruction
system.cpu.commit.op_class_0::SimdMult              0      0.00%     81.98% # Class of committed instruction
system.cpu.commit.op_class_0::SimdMultAcc            0      0.00%     81.98% # Class of committed instruction
system.cpu.commit.op_class_0::SimdShift             0      0.00%     81.98% # Class of committed instruction
system.cpu.commit.op_class_0::SimdShiftAcc            0      0.00%     81.98% # Class of committed instruction
system.cpu.commit.op_class_0::SimdDiv               0      0.00%     81.98% # Class of committed instruction
system.cpu.commit.op_class_0::SimdSqrt              0      0.00%     81.98% # Class of committed instruction
system.cpu.commit.op_class_0::SimdFloatAdd            0      0.00%     81.98% # Class of committed instruction
system.cpu.commit.op_class_0::SimdFloatAlu            0      0.00%     81.98% # Class of committed instruction
system.cpu.commit.op_class_0::SimdFloatCmp            0      0.00%     81.98% # Class of committed instruction
system.cpu.commit.op_class_0::SimdFloatCvt            0      0.00%     81.98% # Class of committed instruction
system.cpu.commit.op_class_0::SimdFloatDiv            0      0.00%     81.98% # Class of committed instruction
system.cpu.commit.op_class_0::SimdFloatMisc            4      0.00%     81.98% # Class of committed instruction
system.cpu.commit.op_class_0::SimdFloatMult            0      0.00%     81.98% # Class of committed instruction
system.cpu.commit.op_class_0::SimdFloatMultAcc            0      0.00%     81.98% # Class of committed instruction
system.cpu.commit.op_class_0::SimdFloatSqrt            0      0.00%     81.98% # Class of committed instruction
system.cpu.commit.op_class_0::SimdReduceAdd            0      0.00%     81.98% # Class of committed instruction
system.cpu.commit.op_class_0::SimdReduceAlu            0      0.00%     81.98% # Class of committed instruction
system.cpu.commit.op_class_0::SimdReduceCmp            0      0.00%     81.98% # Class of committed instruction
system.cpu.commit.op_class_0::SimdFloatReduceAdd            0      0.00%     81.98% # Class of committed instruction
system.cpu.commit.op_class_0::SimdFloatReduceCmp            0      0.00%     81.98% # Class of committed instruction
system.cpu.commit.op_class_0::SimdAes               0      0.00%     81.98% # Class of committed instruction
system.cpu.commit.op_class_0::SimdAesMix            0      0.00%     81.98% # Class of committed instruction
system.cpu.commit.op_class_0::SimdSha1Hash            0      0.00%     81.98% # Class of committed instruction
system.cpu.commit.op_class_0::SimdSha1Hash2            0      0.00%     81.98% # Class of committed instruction
system.cpu.commit.op_class_0::SimdSha256Hash            0      0.00%     81.98% # Class of committed instruction
system.cpu.commit.op_class_0::SimdSha256Hash2            0      0.00%     81.98% # Class of committed instruction
system.cpu.commit.op_class_0::SimdShaSigma2            0      0.00%     81.98% # Class of committed instruction
system.cpu.commit.op_class_0::SimdShaSigma3            0      0.00%     81.98% # Class of committed instruction
system.cpu.commit.op_class_0::SimdPredAlu            0      0.00%     81.98% # Class of committed instruction
system.cpu.commit.op_class_0::MemRead         8670131     11.22%     93.20% # Class of committed instruction
system.cpu.commit.op_class_0::MemWrite        5258125      6.80%    100.00% # Class of committed instruction
system.cpu.commit.op_class_0::FloatMemRead            0      0.00%    100.00% # Class of committed instruction
system.cpu.commit.op_class_0::FloatMemWrite            0      0.00%    100.00% # Class of committed instruction
system.cpu.commit.op_class_0::IprAccess             0      0.00%    100.00% # Class of committed instruction
system.cpu.commit.op_class_0::InstPrefetch            0      0.00%    100.00% # Class of committed instruction
system.cpu.commit.op_class_0::total          77299826                       # Class of committed instruction
system.cpu.commit.refs                       13928256                       # Number of memory references committed
system.cpu.commit.swp_count                         0                       # Number of s/w prefetches committed
system.cpu.commit.vec_insts                         0                       # Number of committed Vector instructions.
system.cpu.committedInsts                    72497445                       # Number of Instructions Simulated
system.cpu.committedOps                      77299826                       # Number of Ops (including micro ops) Simulated
system.cpu.cpi                               0.858540                       # CPI: Cycles Per Instruction
system.cpu.cpi_total                         0.858540                       # CPI: Total CPI of All Threads
system.cpu.decode.BlockedCycles                 37697                       # Number of cycles decode is blocked
system.cpu.decode.BranchMispred                   504                       # Number of times decode detected a branch misprediction
system.cpu.decode.BranchResolved              4847760                       # Number of times decode resolved a branch
system.cpu.decode.DecodedInsts               78604351                       # Number of instructions handled by decode
system.cpu.decode.IdleCycles                 23777504                       # Number of cycles decode is idle
system.cpu.decode.RunCycles                  38237348                       # Number of cycles decode is running
system.cpu.decode.SquashCycles                 127503                       # Number of cycles decode is squashing
system.cpu.decode.SquashedInsts                284549                       # Number of squashed instructions handled by decode
system.cpu.decode.UnblockCycles                   304                       # Number of cycles decode is unblocking
system.cpu.dtb.accesses                             0                       # DTB accesses
system.cpu.dtb.align_faults                         0                       # Number of TLB faults due to alignment restrictions
system.cpu.dtb.domain_faults                        0                       # Number of TLB faults due to domain restrictions
system.cpu.dtb.flush_entries                        0                       # Number of entries that have been flushed from TLB
system.cpu.dtb.flush_tlb                            0                       # Number of times complete TLB was flushed
system.cpu.dtb.flush_tlb_asid                       0                       # Number of times TLB was flushed by ASID
system.cpu.dtb.flush_tlb_mva                        0                       # Number of times TLB was flushed by MVA
system.cpu.dtb.flush_tlb_mva_asid                   0                       # Number of times TLB was flushed by MVA & ASID
system.cpu.dtb.hits                                 0                       # DTB hits
system.cpu.dtb.inst_accesses                        0                       # ITB inst accesses
system.cpu.dtb.inst_hits                            0                       # ITB inst hits
system.cpu.dtb.inst_misses                          0                       # ITB inst misses
system.cpu.dtb.misses                               0                       # DTB misses
system.cpu.dtb.perms_faults                         0                       # Number of TLB faults due to permissions restrictions
system.cpu.dtb.prefetch_faults                      0                       # Number of TLB faults due to prefetch
system.cpu.dtb.read_accesses                        0                       # DTB read accesses
system.cpu.dtb.read_hits                            0                       # DTB read hits
system.cpu.dtb.read_misses                          0                       # DTB read misses
system.cpu.dtb.stage2_mmu.stage2_tlb.accesses            0                       # DTB accesses
system.cpu.dtb.stage2_mmu.stage2_tlb.align_faults            0                       # Number of TLB faults due to alignment restrictions
system.cpu.dtb.stage2_mmu.stage2_tlb.domain_faults            0                       # Number of TLB faults due to domain restrictions
system.cpu.dtb.stage2_mmu.stage2_tlb.flush_entries            0                       # Number of entries that have been flushed from TLB
system.cpu.dtb.stage2_mmu.stage2_tlb.flush_tlb            0                       # Number of times complete TLB was flushed
system.cpu.dtb.stage2_mmu.stage2_tlb.flush_tlb_asid            0                       # Number of times TLB was flushed by ASID
system.cpu.dtb.stage2_mmu.stage2_tlb.flush_tlb_mva            0                       # Number of times TLB was flushed by MVA
system.cpu.dtb.stage2_mmu.stage2_tlb.flush_tlb_mva_asid            0                       # Number of times TLB was flushed by MVA & ASID
system.cpu.dtb.stage2_mmu.stage2_tlb.hits            0                       # DTB hits
system.cpu.dtb.stage2_mmu.stage2_tlb.inst_accesses            0                       # ITB inst accesses
system.cpu.dtb.stage2_mmu.stage2_tlb.inst_hits            0                       # ITB inst hits
system.cpu.dtb.stage2_mmu.stage2_tlb.inst_misses            0                       # ITB inst misses
system.cpu.dtb.stage2_mmu.stage2_tlb.misses            0                       # DTB misses
system.cpu.dtb.stage2_mmu.stage2_tlb.perms_faults            0                       # Number of TLB faults due to permissions restrictions
system.cpu.dtb.stage2_mmu.stage2_tlb.prefetch_faults            0                       # Number of TLB faults due to prefetch
system.cpu.dtb.stage2_mmu.stage2_tlb.read_accesses            0                       # DTB read accesses
system.cpu.dtb.stage2_mmu.stage2_tlb.read_hits            0                       # DTB read hits
system.cpu.dtb.stage2_mmu.stage2_tlb.read_misses            0                       # DTB read misses
system.cpu.dtb.stage2_mmu.stage2_tlb.walker.walkRequestOrigin_Requested::Data            0                       # Table walker requests started/completed, data/inst
system.cpu.dtb.stage2_mmu.stage2_tlb.walker.walkRequestOrigin_Requested::Inst            0                       # Table walker requests started/completed, data/inst
system.cpu.dtb.stage2_mmu.stage2_tlb.walker.walkRequestOrigin_Requested::total            0                       # Table walker requests started/completed, data/inst
system.cpu.dtb.stage2_mmu.stage2_tlb.walker.walkRequestOrigin_Completed::Data            0                       # Table walker requests started/completed, data/inst
system.cpu.dtb.stage2_mmu.stage2_tlb.walker.walkRequestOrigin_Completed::Inst            0                       # Table walker requests started/completed, data/inst
system.cpu.dtb.stage2_mmu.stage2_tlb.walker.walkRequestOrigin_Completed::total            0                       # Table walker requests started/completed, data/inst
system.cpu.dtb.stage2_mmu.stage2_tlb.walker.walkRequestOrigin::total            0                       # Table walker requests started/completed, data/inst
system.cpu.dtb.stage2_mmu.stage2_tlb.walker.walks            0                       # Table walker walks requested
system.cpu.dtb.stage2_mmu.stage2_tlb.write_accesses            0                       # DTB write accesses
system.cpu.dtb.stage2_mmu.stage2_tlb.write_hits            0                       # DTB write hits
system.cpu.dtb.stage2_mmu.stage2_tlb.write_misses            0                       # DTB write misses
system.cpu.dtb.walker.walkRequestOrigin_Requested::Data            0                       # Table walker requests started/completed, data/inst
system.cpu.dtb.walker.walkRequestOrigin_Requested::Inst            0                       # Table walker requests started/completed, data/inst
system.cpu.dtb.walker.walkRequestOrigin_Requested::total            0                       # Table walker requests started/completed, data/inst
system.cpu.dtb.walker.walkRequestOrigin_Completed::Data            0                       # Table walker requests started/completed, data/inst
system.cpu.dtb.walker.walkRequestOrigin_Completed::Inst            0                       # Table walker requests started/completed, data/inst
system.cpu.dtb.walker.walkRequestOrigin_Completed::total            0                       # Table walker requests started/completed, data/inst
system.cpu.dtb.walker.walkRequestOrigin::total            0                       # Table walker requests started/completed, data/inst
system.cpu.dtb.walker.walks                         0                       # Table walker walks requested
system.cpu.dtb.write_accesses                       0                       # DTB write accesses
system.cpu.dtb.write_hits                           0                       # DTB write hits
system.cpu.dtb.write_misses                         0                       # DTB write misses
system.cpu.fetch.Branches                    10662135                       # Number of branches that fetch encountered
system.cpu.fetch.CacheLines                  23645061                       # Number of cache lines fetched
system.cpu.fetch.Cycles                      38329841                       # Number of cycles fetch has run and was not squashing or blocked
system.cpu.fetch.IcacheSquashes                 59503                       # Number of outstanding Icache misses that were squashed
system.cpu.fetch.IcacheWaitRetryStallCycles           14                       # Number of stall cycles due to full MSHR
system.cpu.fetch.Insts                       74243142                       # Number of instructions fetch has processed
system.cpu.fetch.MiscStallCycles                   19                       # Number of cycles fetch has spent waiting on interrupts, or bad addresses, or out of MSHRs
system.cpu.fetch.PendingTrapStallCycles           202                       # Number of stall cycles due to pending traps
system.cpu.fetch.SquashCycles                  255988                       # Number of cycles fetch has spent squashing
system.cpu.fetch.branchRate                  0.171301                       # Number of branch fetches per cycle
system.cpu.fetch.icacheStallCycles           23722286                       # Number of cycles fetch is stalled on an Icache miss
system.cpu.fetch.predictedBranches            6977039                       # Number of branches that fetch has predicted taken
system.cpu.fetch.rate                        1.192815                       # Number of inst fetches per cycle
system.cpu.fetch.rateDist::samples           62180356                       # Number of instructions fetched each cycle (Total)
system.cpu.fetch.rateDist::mean              1.271579                       # Number of instructions fetched each cycle (Total)
system.cpu.fetch.rateDist::stdev             1.260245                       # Number of instructions fetched each cycle (Total)
system.cpu.fetch.rateDist::underflows               0      0.00%      0.00% # Number of instructions fetched each cycle (Total)
system.cpu.fetch.rateDist::0                 23857879     38.37%     38.37% # Number of instructions fetched each cycle (Total)
system.cpu.fetch.rateDist::1                 16947478     27.26%     65.62% # Number of instructions fetched each cycle (Total)
system.cpu.fetch.rateDist::2                  2005270      3.22%     68.85% # Number of instructions fetched each cycle (Total)
system.cpu.fetch.rateDist::3                 19369729     31.15%    100.00% # Number of instructions fetched each cycle (Total)
system.cpu.fetch.rateDist::overflows                0      0.00%    100.00% # Number of instructions fetched each cycle (Total)
system.cpu.fetch.rateDist::min_value                0                       # Number of instructions fetched each cycle (Total)
system.cpu.fetch.rateDist::max_value                3                       # Number of instructions fetched each cycle (Total)
system.cpu.fetch.rateDist::total             62180356                       # Number of instructions fetched each cycle (Total)
system.cpu.idleCycles                           61616                       # Total number of cycles that the CPU has spent unscheduled due to idling
system.cpu.iew.branchMispredicts               127363                       # Number of branch mispredicts detected at execute
system.cpu.iew.exec_branches                 10496971                       # Number of branches executed
system.cpu.iew.exec_nop                             3                       # number of nop insts executed
system.cpu.iew.exec_rate                     1.249003                       # Inst execution rate
system.cpu.iew.exec_refs                     13988173                       # number of memory reference insts executed
system.cpu.iew.exec_stores                    5258600                       # Number of stores executed
system.cpu.iew.exec_swp                             0                       # number of swp insts executed
system.cpu.iew.iewBlockCycles                   25092                       # Number of cycles IEW is blocking
system.cpu.iew.iewDispLoadInsts               8795770                       # Number of dispatched load instructions
system.cpu.iew.iewDispNonSpecInsts                 69                       # Number of dispatched non-speculative instructions
system.cpu.iew.iewDispSquashedInsts                 0                       # Number of squashed instructions skipped by dispatch
system.cpu.iew.iewDispStoreInsts              5270189                       # Number of dispatched store instructions
system.cpu.iew.iewDispatchedInsts            78115020                       # Number of instructions dispatched to IQ
system.cpu.iew.iewExecLoadInsts               8729573                       # Number of load instructions executed
system.cpu.iew.iewExecSquashedInsts            157796                       # Number of squashed instructions skipped in execute
system.cpu.iew.iewExecutedInsts              77740438                       # Number of executed instructions
system.cpu.iew.iewIQFullEvents                      5                       # Number of times the IQ has become full, causing a stall
system.cpu.iew.iewIdleCycles                        0                       # Number of cycles IEW is idle
system.cpu.iew.iewLSQFullEvents                   410                       # Number of times the LSQ has become full, causing a stall
system.cpu.iew.iewSquashCycles                 127503                       # Number of cycles IEW is squashing
system.cpu.iew.iewUnblockCycles                   417                       # Number of cycles IEW is unblocking
system.cpu.iew.lsq.thread0.blockedLoads             0                       # Number of blocked loads due to partial load-store forwarding
system.cpu.iew.lsq.thread0.cacheBlocked             6                       # Number of times an access to memory failed due to the cache being blocked
system.cpu.iew.lsq.thread0.forwLoads           157727                       # Number of loads that had data forwarded from stores
system.cpu.iew.lsq.thread0.ignoredResponses            9                       # Number of memory responses ignored because the instruction is squashed
system.cpu.iew.lsq.thread0.invAddrLoads             0                       # Number of loads ignored due to an invalid address
system.cpu.iew.lsq.thread0.invAddrSwpfs             0                       # Number of software prefetches ignored due to an invalid address
system.cpu.iew.lsq.thread0.memOrderViolation          191                       # Number of memory ordering violations
system.cpu.iew.lsq.thread0.rescheduledLoads            9                       # Number of loads that were rescheduled
system.cpu.iew.lsq.thread0.squashedLoads       125639                       # Number of loads squashed
system.cpu.iew.lsq.thread0.squashedStores        12064                       # Number of stores squashed
system.cpu.iew.memOrderViolationEvents            191                       # Number of memory order violations
system.cpu.iew.predictedNotTakenIncorrect        19299                       # Number of branches that were predicted not taken incorrectly
system.cpu.iew.predictedTakenIncorrect         108064                       # Number of branches that were predicted taken incorrectly
system.cpu.iew.wb_consumers                  85526104                       # num instructions consuming a value
system.cpu.iew.wb_count                      77705049                       # cumulative count of insts written-back
system.cpu.iew.wb_fanout                     0.579163                       # average fanout of values written-back
system.cpu.iew.wb_producers                  49533569                       # num instructions producing a value
system.cpu.iew.wb_rate                       1.248435                       # insts written-back per cycle
system.cpu.iew.wb_sent                       77705122                       # cumulative count of insts sent to commit
system.cpu.int_regfile_reads                 94031382                       # number of integer regfile reads
system.cpu.int_regfile_writes                55005498                       # number of integer regfile writes
system.cpu.ipc                               1.164768                       # IPC: Instructions Per Cycle
system.cpu.ipc_total                         1.164768                       # IPC: Total IPC of All Threads
system.cpu.iq.FU_type_0::No_OpClass                18      0.00%      0.00% # Type of FU issued
system.cpu.iq.FU_type_0::IntAlu              62939377     80.80%     80.80% # Type of FU issued
system.cpu.iq.FU_type_0::IntMult               927668      1.19%     81.99% # Type of FU issued
system.cpu.iq.FU_type_0::IntDiv                     0      0.00%     81.99% # Type of FU issued
system.cpu.iq.FU_type_0::FloatAdd                   0      0.00%     81.99% # Type of FU issued
system.cpu.iq.FU_type_0::FloatCmp                   0      0.00%     81.99% # Type of FU issued
system.cpu.iq.FU_type_0::FloatCvt                   0      0.00%     81.99% # Type of FU issued
system.cpu.iq.FU_type_0::FloatMult                  0      0.00%     81.99% # Type of FU issued
system.cpu.iq.FU_type_0::FloatMultAcc               0      0.00%     81.99% # Type of FU issued
system.cpu.iq.FU_type_0::FloatDiv                   0      0.00%     81.99% # Type of FU issued
system.cpu.iq.FU_type_0::FloatMisc                  0      0.00%     81.99% # Type of FU issued
system.cpu.iq.FU_type_0::FloatSqrt                  0      0.00%     81.99% # Type of FU issued
system.cpu.iq.FU_type_0::SimdAdd                    0      0.00%     81.99% # Type of FU issued
system.cpu.iq.FU_type_0::SimdAddAcc                 0      0.00%     81.99% # Type of FU issued
system.cpu.iq.FU_type_0::SimdAlu                    0      0.00%     81.99% # Type of FU issued
system.cpu.iq.FU_type_0::SimdCmp                    0      0.00%     81.99% # Type of FU issued
system.cpu.iq.FU_type_0::SimdCvt                    0      0.00%     81.99% # Type of FU issued
system.cpu.iq.FU_type_0::SimdMisc                   0      0.00%     81.99% # Type of FU issued
system.cpu.iq.FU_type_0::SimdMult                   0      0.00%     81.99% # Type of FU issued
system.cpu.iq.FU_type_0::SimdMultAcc                0      0.00%     81.99% # Type of FU issued
system.cpu.iq.FU_type_0::SimdShift                  0      0.00%     81.99% # Type of FU issued
system.cpu.iq.FU_type_0::SimdShiftAcc               0      0.00%     81.99% # Type of FU issued
system.cpu.iq.FU_type_0::SimdDiv                    0      0.00%     81.99% # Type of FU issued
system.cpu.iq.FU_type_0::SimdSqrt                   0      0.00%     81.99% # Type of FU issued
system.cpu.iq.FU_type_0::SimdFloatAdd               0      0.00%     81.99% # Type of FU issued
system.cpu.iq.FU_type_0::SimdFloatAlu               0      0.00%     81.99% # Type of FU issued
system.cpu.iq.FU_type_0::SimdFloatCmp               0      0.00%     81.99% # Type of FU issued
system.cpu.iq.FU_type_0::SimdFloatCvt               0      0.00%     81.99% # Type of FU issued
system.cpu.iq.FU_type_0::SimdFloatDiv               0      0.00%     81.99% # Type of FU issued
system.cpu.iq.FU_type_0::SimdFloatMisc              4      0.00%     81.99% # Type of FU issued
system.cpu.iq.FU_type_0::SimdFloatMult              0      0.00%     81.99% # Type of FU issued
system.cpu.iq.FU_type_0::SimdFloatMultAcc            0      0.00%     81.99% # Type of FU issued
system.cpu.iq.FU_type_0::SimdFloatSqrt              0      0.00%     81.99% # Type of FU issued
system.cpu.iq.FU_type_0::SimdReduceAdd              0      0.00%     81.99% # Type of FU issued
system.cpu.iq.FU_type_0::SimdReduceAlu              0      0.00%     81.99% # Type of FU issued
system.cpu.iq.FU_type_0::SimdReduceCmp              0      0.00%     81.99% # Type of FU issued
system.cpu.iq.FU_type_0::SimdFloatReduceAdd            0      0.00%     81.99% # Type of FU issued
system.cpu.iq.FU_type_0::SimdFloatReduceCmp            0      0.00%     81.99% # Type of FU issued
system.cpu.iq.FU_type_0::SimdAes                    0      0.00%     81.99% # Type of FU issued
system.cpu.iq.FU_type_0::SimdAesMix                 0      0.00%     81.99% # Type of FU issued
system.cpu.iq.FU_type_0::SimdSha1Hash               0      0.00%     81.99% # Type of FU issued
system.cpu.iq.FU_type_0::SimdSha1Hash2              0      0.00%     81.99% # Type of FU issued
system.cpu.iq.FU_type_0::SimdSha256Hash             0      0.00%     81.99% # Type of FU issued
system.cpu.iq.FU_type_0::SimdSha256Hash2            0      0.00%     81.99% # Type of FU issued
system.cpu.iq.FU_type_0::SimdShaSigma2              0      0.00%     81.99% # Type of FU issued
system.cpu.iq.FU_type_0::SimdShaSigma3              0      0.00%     81.99% # Type of FU issued
system.cpu.iq.FU_type_0::SimdPredAlu                0      0.00%     81.99% # Type of FU issued
system.cpu.iq.FU_type_0::MemRead              8772131     11.26%     93.25% # Type of FU issued
system.cpu.iq.FU_type_0::MemWrite             5259036      6.75%    100.00% # Type of FU issued
system.cpu.iq.FU_type_0::FloatMemRead               0      0.00%    100.00% # Type of FU issued
system.cpu.iq.FU_type_0::FloatMemWrite              0      0.00%    100.00% # Type of FU issued
system.cpu.iq.FU_type_0::IprAccess                  0      0.00%    100.00% # Type of FU issued
system.cpu.iq.FU_type_0::InstPrefetch               0      0.00%    100.00% # Type of FU issued
system.cpu.iq.FU_type_0::total               77898234                       # Type of FU issued
system.cpu.iq.fp_alu_accesses                       0                       # Number of floating point alu accesses
system.cpu.iq.fp_inst_queue_reads                   0                       # Number of floating instruction queue reads
system.cpu.iq.fp_inst_queue_wakeup_accesses            0                       # Number of floating instruction queue wakeup accesses
system.cpu.iq.fp_inst_queue_writes                  0                       # Number of floating instruction queue writes
system.cpu.iq.fu_busy_cnt                     6278575                       # FU busy when requested
system.cpu.iq.fu_busy_rate                   0.080600                       # FU busy rate (busy events/executed inst)
system.cpu.iq.fu_full::No_OpClass                   0      0.00%      0.00% # attempts to use FU when none available
system.cpu.iq.fu_full::IntAlu                 4323592     68.86%     68.86% # attempts to use FU when none available
system.cpu.iq.fu_full::IntMult                    155      0.00%     68.87% # attempts to use FU when none available
system.cpu.iq.fu_full::IntDiv                       0      0.00%     68.87% # attempts to use FU when none available
system.cpu.iq.fu_full::FloatAdd                     0      0.00%     68.87% # attempts to use FU when none available
system.cpu.iq.fu_full::FloatCmp                     0      0.00%     68.87% # attempts to use FU when none available
system.cpu.iq.fu_full::FloatCvt                     0      0.00%     68.87% # attempts to use FU when none available
system.cpu.iq.fu_full::FloatMult                    0      0.00%     68.87% # attempts to use FU when none available
system.cpu.iq.fu_full::FloatMultAcc                 0      0.00%     68.87% # attempts to use FU when none available
system.cpu.iq.fu_full::FloatDiv                     0      0.00%     68.87% # attempts to use FU when none available
system.cpu.iq.fu_full::FloatMisc                    0      0.00%     68.87% # attempts to use FU when none available
system.cpu.iq.fu_full::FloatSqrt                    0      0.00%     68.87% # attempts to use FU when none available
system.cpu.iq.fu_full::SimdAdd                      0      0.00%     68.87% # attempts to use FU when none available
system.cpu.iq.fu_full::SimdAddAcc                   0      0.00%     68.87% # attempts to use FU when none available
system.cpu.iq.fu_full::SimdAlu                      0      0.00%     68.87% # attempts to use FU when none available
system.cpu.iq.fu_full::SimdCmp                      0      0.00%     68.87% # attempts to use FU when none available
system.cpu.iq.fu_full::SimdCvt                      0      0.00%     68.87% # attempts to use FU when none available
system.cpu.iq.fu_full::SimdMisc                     0      0.00%     68.87% # attempts to use FU when none available
system.cpu.iq.fu_full::SimdMult                     0      0.00%     68.87% # attempts to use FU when none available
system.cpu.iq.fu_full::SimdMultAcc                  0      0.00%     68.87% # attempts to use FU when none available
system.cpu.iq.fu_full::SimdShift                    0      0.00%     68.87% # attempts to use FU when none available
system.cpu.iq.fu_full::SimdShiftAcc                 0      0.00%     68.87% # attempts to use FU when none available
system.cpu.iq.fu_full::SimdDiv                      0      0.00%     68.87% # attempts to use FU when none available
system.cpu.iq.fu_full::SimdSqrt                     0      0.00%     68.87% # attempts to use FU when none available
system.cpu.iq.fu_full::SimdFloatAdd                 0      0.00%     68.87% # attempts to use FU when none available
system.cpu.iq.fu_full::SimdFloatAlu                 0      0.00%     68.87% # attempts to use FU when none available
system.cpu.iq.fu_full::SimdFloatCmp                 0      0.00%     68.87% # attempts to use FU when none available
system.cpu.iq.fu_full::SimdFloatCvt                 0      0.00%     68.87% # attempts to use FU when none available
system.cpu.iq.fu_full::SimdFloatDiv                 0      0.00%     68.87% # attempts to use FU when none available
system.cpu.iq.fu_full::SimdFloatMisc                0      0.00%     68.87% # attempts to use FU when none available
system.cpu.iq.fu_full::SimdFloatMult                0      0.00%     68.87% # attempts to use FU when none available
system.cpu.iq.fu_full::SimdFloatMultAcc             0      0.00%     68.87% # attempts to use FU when none available
system.cpu.iq.fu_full::SimdFloatSqrt                0      0.00%     68.87% # attempts to use FU when none available
system.cpu.iq.fu_full::SimdReduceAdd                0      0.00%     68.87% # attempts to use FU when none available
system.cpu.iq.fu_full::SimdReduceAlu                0      0.00%     68.87% # attempts to use FU when none available
system.cpu.iq.fu_full::SimdReduceCmp                0      0.00%     68.87% # attempts to use FU when none available
system.cpu.iq.fu_full::SimdFloatReduceAdd            0      0.00%     68.87% # attempts to use FU when none available
system.cpu.iq.fu_full::SimdFloatReduceCmp            0      0.00%     68.87% # attempts to use FU when none available
system.cpu.iq.fu_full::SimdAes                      0      0.00%     68.87% # attempts to use FU when none available
system.cpu.iq.fu_full::SimdAesMix                   0      0.00%     68.87% # attempts to use FU when none available
system.cpu.iq.fu_full::SimdSha1Hash                 0      0.00%     68.87% # attempts to use FU when none available
system.cpu.iq.fu_full::SimdSha1Hash2                0      0.00%     68.87% # attempts to use FU when none available
system.cpu.iq.fu_full::SimdSha256Hash               0      0.00%     68.87% # attempts to use FU when none available
system.cpu.iq.fu_full::SimdSha256Hash2              0      0.00%     68.87% # attempts to use FU when none available
system.cpu.iq.fu_full::SimdShaSigma2                0      0.00%     68.87% # attempts to use FU when none available
system.cpu.iq.fu_full::SimdShaSigma3                0      0.00%     68.87% # attempts to use FU when none available
system.cpu.iq.fu_full::SimdPredAlu                  0      0.00%     68.87% # attempts to use FU when none available
system.cpu.iq.fu_full::MemRead                 848937     13.52%     82.39% # attempts to use FU when none available
system.cpu.iq.fu_full::MemWrite               1105891     17.61%    100.00% # attempts to use FU when none available
system.cpu.iq.fu_full::FloatMemRead                 0      0.00%    100.00% # attempts to use FU when none available
system.cpu.iq.fu_full::FloatMemWrite                0      0.00%    100.00% # attempts to use FU when none available
system.cpu.iq.fu_full::IprAccess                    0      0.00%    100.00% # attempts to use FU when none available
system.cpu.iq.fu_full::InstPrefetch                 0      0.00%    100.00% # attempts to use FU when none available
system.cpu.iq.int_alu_accesses               84176791                       # Number of integer alu accesses
system.cpu.iq.int_inst_queue_reads          224261872                       # Number of integer instruction queue reads
system.cpu.iq.int_inst_queue_wakeup_accesses     77705049                       # Number of integer instruction queue wakeup accesses
system.cpu.iq.int_inst_queue_writes          78930398                       # Number of integer instruction queue writes
system.cpu.iq.iqInstsAdded                   78114896                       # Number of instructions added to the IQ (excludes non-spec)
system.cpu.iq.iqInstsIssued                  77898234                       # Number of instructions issued
system.cpu.iq.iqNonSpecInstsAdded                 121                       # Number of non-speculative instructions added to the IQ
system.cpu.iq.iqSquashedInstsExamined          815190                       # Number of squashed instructions iterated over during squash; mainly for profiling
system.cpu.iq.iqSquashedInstsIssued              6473                       # Number of squashed instructions issued
system.cpu.iq.iqSquashedNonSpecRemoved              4                       # Number of squashed non-spec instructions that were removed
system.cpu.iq.iqSquashedOperandsExamined      1384982                       # Number of squashed operands that are examined and possibly removed from graph
system.cpu.iq.issued_per_cycle::samples      62180356                       # Number of insts issued each cycle
system.cpu.iq.issued_per_cycle::mean         1.252779                       # Number of insts issued each cycle
system.cpu.iq.issued_per_cycle::stdev        0.813992                       # Number of insts issued each cycle
system.cpu.iq.issued_per_cycle::underflows            0      0.00%      0.00% # Number of insts issued each cycle
system.cpu.iq.issued_per_cycle::0            11356469     18.26%     18.26% # Number of insts issued each cycle
system.cpu.iq.issued_per_cycle::1            27120205     43.62%     61.88% # Number of insts issued each cycle
system.cpu.iq.issued_per_cycle::2            20333346     32.70%     94.58% # Number of insts issued each cycle
system.cpu.iq.issued_per_cycle::3             3370007      5.42%    100.00% # Number of insts issued each cycle
system.cpu.iq.issued_per_cycle::4                 329      0.00%    100.00% # Number of insts issued each cycle
system.cpu.iq.issued_per_cycle::5                   0      0.00%    100.00% # Number of insts issued each cycle
system.cpu.iq.issued_per_cycle::6                   0      0.00%    100.00% # Number of insts issued each cycle
system.cpu.iq.issued_per_cycle::7                   0      0.00%    100.00% # Number of insts issued each cycle
system.cpu.iq.issued_per_cycle::8                   0      0.00%    100.00% # Number of insts issued each cycle
system.cpu.iq.issued_per_cycle::overflows            0      0.00%    100.00% # Number of insts issued each cycle
system.cpu.iq.issued_per_cycle::min_value            0                       # Number of insts issued each cycle
system.cpu.iq.issued_per_cycle::max_value            4                       # Number of insts issued each cycle
system.cpu.iq.issued_per_cycle::total        62180356                       # Number of insts issued each cycle
system.cpu.iq.rate                           1.251539                       # Inst issue rate
system.cpu.iq.vec_alu_accesses                      0                       # Number of vector alu accesses
system.cpu.iq.vec_inst_queue_reads                  0                       # Number of vector instruction queue reads
system.cpu.iq.vec_inst_queue_wakeup_accesses            0                       # Number of vector instruction queue wakeup accesses
system.cpu.iq.vec_inst_queue_writes                 0                       # Number of vector instruction queue writes
system.cpu.itb.accesses                             0                       # DTB accesses
system.cpu.itb.align_faults                         0                       # Number of TLB faults due to alignment restrictions
system.cpu.itb.domain_faults                        0                       # Number of TLB faults due to domain restrictions
system.cpu.itb.flush_entries                        0                       # Number of entries that have been flushed from TLB
system.cpu.itb.flush_tlb                            0                       # Number of times complete TLB was flushed
system.cpu.itb.flush_tlb_asid                       0                       # Number of times TLB was flushed by ASID
system.cpu.itb.flush_tlb_mva                        0                       # Number of times TLB was flushed by MVA
system.cpu.itb.flush_tlb_mva_asid                   0                       # Number of times TLB was flushed by MVA & ASID
system.cpu.itb.hits                                 0                       # DTB hits
system.cpu.itb.inst_accesses                        0                       # ITB inst accesses
system.cpu.itb.inst_hits                            0                       # ITB inst hits
system.cpu.itb.inst_misses                          0                       # ITB inst misses
system.cpu.itb.misses                               0                       # DTB misses
system.cpu.itb.perms_faults                         0                       # Number of TLB faults due to permissions restrictions
system.cpu.itb.prefetch_faults                      0                       # Number of TLB faults due to prefetch
system.cpu.itb.read_accesses                        0                       # DTB read accesses
system.cpu.itb.read_hits                            0                       # DTB read hits
system.cpu.itb.read_misses                          0                       # DTB read misses
system.cpu.itb.stage2_mmu.stage2_tlb.accesses            0                       # DTB accesses
system.cpu.itb.stage2_mmu.stage2_tlb.align_faults            0                       # Number of TLB faults due to alignment restrictions
system.cpu.itb.stage2_mmu.stage2_tlb.domain_faults            0                       # Number of TLB faults due to domain restrictions
system.cpu.itb.stage2_mmu.stage2_tlb.flush_entries            0                       # Number of entries that have been flushed from TLB
system.cpu.itb.stage2_mmu.stage2_tlb.flush_tlb            0                       # Number of times complete TLB was flushed
system.cpu.itb.stage2_mmu.stage2_tlb.flush_tlb_asid            0                       # Number of times TLB was flushed by ASID
system.cpu.itb.stage2_mmu.stage2_tlb.flush_tlb_mva            0                       # Number of times TLB was flushed by MVA
system.cpu.itb.stage2_mmu.stage2_tlb.flush_tlb_mva_asid            0                       # Number of times TLB was flushed by MVA & ASID
system.cpu.itb.stage2_mmu.stage2_tlb.hits            0                       # DTB hits
system.cpu.itb.stage2_mmu.stage2_tlb.inst_accesses            0                       # ITB inst accesses
system.cpu.itb.stage2_mmu.stage2_tlb.inst_hits            0                       # ITB inst hits
system.cpu.itb.stage2_mmu.stage2_tlb.inst_misses            0                       # ITB inst misses
system.cpu.itb.stage2_mmu.stage2_tlb.misses            0                       # DTB misses
system.cpu.itb.stage2_mmu.stage2_tlb.perms_faults            0                       # Number of TLB faults due to permissions restrictions
system.cpu.itb.stage2_mmu.stage2_tlb.prefetch_faults            0                       # Number of TLB faults due to prefetch
system.cpu.itb.stage2_mmu.stage2_tlb.read_accesses            0                       # DTB read accesses
system.cpu.itb.stage2_mmu.stage2_tlb.read_hits            0                       # DTB read hits
system.cpu.itb.stage2_mmu.stage2_tlb.read_misses            0                       # DTB read misses
system.cpu.itb.stage2_mmu.stage2_tlb.walker.walkRequestOrigin_Requested::Data            0                       # Table walker requests started/completed, data/inst
system.cpu.itb.stage2_mmu.stage2_tlb.walker.walkRequestOrigin_Requested::Inst            0                       # Table walker requests started/completed, data/inst
system.cpu.itb.stage2_mmu.stage2_tlb.walker.walkRequestOrigin_Requested::total            0                       # Table walker requests started/completed, data/inst
system.cpu.itb.stage2_mmu.stage2_tlb.walker.walkRequestOrigin_Completed::Data            0                       # Table walker requests started/completed, data/inst
system.cpu.itb.stage2_mmu.stage2_tlb.walker.walkRequestOrigin_Completed::Inst            0                       # Table walker requests started/completed, data/inst
system.cpu.itb.stage2_mmu.stage2_tlb.walker.walkRequestOrigin_Completed::total            0                       # Table walker requests started/completed, data/inst
system.cpu.itb.stage2_mmu.stage2_tlb.walker.walkRequestOrigin::total            0                       # Table walker requests started/completed, data/inst
system.cpu.itb.stage2_mmu.stage2_tlb.walker.walks            0                       # Table walker walks requested
system.cpu.itb.stage2_mmu.stage2_tlb.write_accesses            0                       # DTB write accesses
system.cpu.itb.stage2_mmu.stage2_tlb.write_hits            0                       # DTB write hits
system.cpu.itb.stage2_mmu.stage2_tlb.write_misses            0                       # DTB write misses
system.cpu.itb.walker.walkRequestOrigin_Requested::Data            0                       # Table walker requests started/completed, data/inst
system.cpu.itb.walker.walkRequestOrigin_Requested::Inst            0                       # Table walker requests started/completed, data/inst
system.cpu.itb.walker.walkRequestOrigin_Requested::total            0                       # Table walker requests started/completed, data/inst
system.cpu.itb.walker.walkRequestOrigin_Completed::Data            0                       # Table walker requests started/completed, data/inst
system.cpu.itb.walker.walkRequestOrigin_Completed::Inst            0                       # Table walker requests started/completed, data/inst
system.cpu.itb.walker.walkRequestOrigin_Completed::total            0                       # Table walker requests started/completed, data/inst
system.cpu.itb.walker.walkRequestOrigin::total            0                       # Table walker requests started/completed, data/inst
system.cpu.itb.walker.walks                         0                       # Table walker walks requested
system.cpu.itb.write_accesses                       0                       # DTB write accesses
system.cpu.itb.write_hits                           0                       # DTB write hits
system.cpu.itb.write_misses                         0                       # DTB write misses
system.cpu.memDep0.conflictingLoads            152636                       # Number of conflicting loads.
system.cpu.memDep0.conflictingStores               22                       # Number of conflicting stores.
system.cpu.memDep0.insertedLoads              8795770                       # Number of loads inserted to the mem dependence unit.
system.cpu.memDep0.insertedStores             5270189                       # Number of stores inserted to the mem dependence unit.
system.cpu.misc_regfile_reads                13953746                       # number of misc regfile reads
system.cpu.misc_regfile_writes                    206                       # number of misc regfile writes
system.cpu.numCycles                         62241972                       # number of cpu cycles simulated
system.cpu.numWorkItemsCompleted                    0                       # number of work items this cpu completed
system.cpu.numWorkItemsStarted                      0                       # number of work items this cpu started
system.cpu.rename.BlockCycles                   26505                       # Number of cycles rename is blocking
system.cpu.rename.CommittedMaps              94287631                       # Number of HB maps that are committed
system.cpu.rename.FullRegisterEvents               35                       # Number of times there has been no free registers
system.cpu.rename.IQFullEvents                     19                       # Number of times rename has blocked due to IQ full
system.cpu.rename.IdleCycles                 24016688                       # Number of cycles rename is idle
system.cpu.rename.LQFullEvents                   1929                       # Number of times rename has blocked due to LQ full
system.cpu.rename.ROBFullEvents                     7                       # Number of times rename has blocked due to ROB full
system.cpu.rename.RenameLookups             354857987                       # Number of register rename lookups that rename has made
system.cpu.rename.RenamedInsts               78297566                       # Number of instructions processed by rename
system.cpu.rename.RenamedOperands            95562413                       # Number of destination operands rename has renamed
system.cpu.rename.RunCycles                  37998451                       # Number of cycles rename is running
system.cpu.rename.SQFullEvents                   6046                       # Number of times rename has blocked due to SQ full
system.cpu.rename.SquashCycles                 127503                       # Number of cycles rename is squashing
system.cpu.rename.SquashedInsts                143673                       # Number of squashed instructions processed by rename
system.cpu.rename.UnblockCycles                  8198                       # Number of cycles rename is unblocking
system.cpu.rename.UndoneMaps                  1274781                       # Number of HB maps that are undone due to squashing
system.cpu.rename.int_rename_lookups        101341306                       # Number of integer rename lookups
system.cpu.rename.serializeStallCycles           3011                       # count of cycles rename stalled for serializing inst
system.cpu.rename.serializingInsts                 74                       # count of serializing insts renamed
system.cpu.rename.skidInsts                       723                       # count of insts added to the skid buffer
system.cpu.rename.tempSerializingInsts             68                       # count of temporary serializing insts renamed
system.cpu.rename.vec_rename_lookups               32                       # Number of vector rename lookups
system.cpu.rob.rob_reads                    139808158                       # The number of ROB reads
system.cpu.rob.rob_writes                   156079492                       # The number of ROB writes
system.cpu.timesIdled                             626                       # Number of times that the entire CPU went into an idle state and unscheduled itself
system.cpu.vec_regfile_reads                       32                       # number of vector regfile reads
system.cpu.workload.numSyscalls                    13                       # Number of system calls
system.membus.snoop_filter.hit_multi_requests            0                       # Number of requests hitting in the snoop filter with multiple (>1) holders of the requested data.
system.membus.snoop_filter.hit_multi_snoops            0                       # Number of snoops hitting in the snoop filter with multiple (>1) holders of the requested data.
system.membus.snoop_filter.hit_single_requests            0                       # Number of requests hitting in the snoop filter with a single holder of the requested data.
system.membus.snoop_filter.hit_single_snoops            0                       # Number of snoops hitting in the snoop filter with a single holder of the requested data.
system.membus.snoop_filter.tot_requests          1048                       # Total number of requests made to the snoop filter.
system.membus.snoop_filter.tot_snoops               0                       # Total number of snoops made to the snoop filter.
system.tol2bus.snoop_filter.hit_multi_requests           31                       # Number of requests hitting in the snoop filter with multiple (>1) holders of the requested data.
system.tol2bus.snoop_filter.hit_multi_snoops            0                       # Number of snoops hitting in the snoop filter with multiple (>1) holders of the requested data.
system.tol2bus.snoop_filter.hit_single_requests          334                       # Number of requests hitting in the snoop filter with a single holder of the requested data.
system.tol2bus.snoop_filter.hit_single_snoops            0                       # Number of snoops hitting in the snoop filter with a single holder of the requested data.
system.tol2bus.snoop_filter.tot_requests         1446                       # Total number of requests made to the snoop filter.
system.tol2bus.snoop_filter.tot_snoops              0                       # Total number of snoops made to the snoop filter.
system.membus.pwrStateResidencyTicks::UNDEFINED  38901231875                       # Cumulative time (in ticks) in various power states
system.membus.trans_dist::ReadResp                917                       # Transaction distribution
system.membus.trans_dist::ReadExReq               130                       # Transaction distribution
system.membus.trans_dist::ReadExResp              130                       # Transaction distribution
system.membus.trans_dist::ReadSharedReq           918                       # Transaction distribution
system.membus.pkt_count_system.l2.mem_side::system.mem_ctrls.port         2095                       # Packet count per connected master and slave (bytes)
system.membus.pkt_count::total                   2095                       # Packet count per connected master and slave (bytes)
system.membus.pkt_size_system.l2.mem_side::system.mem_ctrls.port        67008                       # Cumulative packet size per connected master and slave (bytes)
system.membus.pkt_size::total                   67008                       # Cumulative packet size per connected master and slave (bytes)
system.membus.snoops                                0                       # Total snoops (count)
system.membus.snoopTraffic                          0                       # Total snoop traffic (bytes)
system.membus.snoop_fanout::samples              1048                       # Request fanout histogram
system.membus.snoop_fanout::mean                    0                       # Request fanout histogram
system.membus.snoop_fanout::stdev                   0                       # Request fanout histogram
system.membus.snoop_fanout::underflows              0      0.00%      0.00% # Request fanout histogram
system.membus.snoop_fanout::0                    1048    100.00%    100.00% # Request fanout histogram
system.membus.snoop_fanout::1                       0      0.00%    100.00% # Request fanout histogram
system.membus.snoop_fanout::overflows               0      0.00%    100.00% # Request fanout histogram
system.membus.snoop_fanout::min_value               0                       # Request fanout histogram
system.membus.snoop_fanout::max_value               0                       # Request fanout histogram
system.membus.snoop_fanout::total                1048                       # Request fanout histogram
system.membus.respLayer1.occupancy            5572000                       # Layer occupancy (ticks)
system.membus.respLayer1.utilization              0.0                       # Layer utilization (%)
system.membus.reqLayer0.occupancy             1490750                       # Layer occupancy (ticks)
system.membus.reqLayer0.utilization               0.0                       # Layer utilization (%)
system.tol2bus.pwrStateResidencyTicks::UNDEFINED  38901231875                       # Cumulative time (in ticks) in various power states
system.tol2bus.trans_dist::ReadResp              1002                       # Transaction distribution
system.tol2bus.trans_dist::WritebackDirty            2                       # Transaction distribution
system.tol2bus.trans_dist::WritebackClean          305                       # Transaction distribution
system.tol2bus.trans_dist::CleanEvict               5                       # Transaction distribution
system.tol2bus.trans_dist::ReadExReq              130                       # Transaction distribution
system.tol2bus.trans_dist::ReadExResp             130                       # Transaction distribution
system.tol2bus.trans_dist::ReadCleanReq           811                       # Transaction distribution
system.tol2bus.trans_dist::ReadSharedReq          193                       # Transaction distribution
system.tol2bus.pkt_count_system.cpu.icache.mem_side::system.l2.cpu_side         1926                       # Packet count per connected master and slave (bytes)
system.tol2bus.pkt_count_system.cpu.dcache.mem_side::system.l2.cpu_side          652                       # Packet count per connected master and slave (bytes)
system.tol2bus.pkt_count::total                  2578                       # Packet count per connected master and slave (bytes)
system.tol2bus.pkt_size_system.cpu.icache.mem_side::system.l2.cpu_side        71360                       # Cumulative packet size per connected master and slave (bytes)
system.tol2bus.pkt_size_system.cpu.dcache.mem_side::system.l2.cpu_side        20736                       # Cumulative packet size per connected master and slave (bytes)
system.tol2bus.pkt_size::total                  92096                       # Cumulative packet size per connected master and slave (bytes)
system.tol2bus.snoops                               0                       # Total snoops (count)
system.tol2bus.snoopTraffic                         0                       # Total snoop traffic (bytes)
system.tol2bus.snoop_fanout::samples             1134                       # Request fanout histogram
system.tol2bus.snoop_fanout::mean            0.046737                       # Request fanout histogram
system.tol2bus.snoop_fanout::stdev           0.211169                       # Request fanout histogram
system.tol2bus.snoop_fanout::underflows             0      0.00%      0.00% # Request fanout histogram
system.tol2bus.snoop_fanout::0                   1081     95.33%     95.33% # Request fanout histogram
system.tol2bus.snoop_fanout::1                     53      4.67%    100.00% # Request fanout histogram
system.tol2bus.snoop_fanout::2                      0      0.00%    100.00% # Request fanout histogram
system.tol2bus.snoop_fanout::overflows              0      0.00%    100.00% # Request fanout histogram
system.tol2bus.snoop_fanout::min_value              0                       # Request fanout histogram
system.tol2bus.snoop_fanout::max_value              1                       # Request fanout histogram
system.tol2bus.snoop_fanout::total               1134                       # Request fanout histogram
system.tol2bus.reqLayer0.occupancy            1287500                       # Layer occupancy (ticks)
system.tol2bus.reqLayer0.utilization              0.0                       # Layer utilization (%)
system.tol2bus.respLayer1.occupancy            608118                       # Layer occupancy (ticks)
system.tol2bus.respLayer1.utilization             0.0                       # Layer utilization (%)
system.tol2bus.respLayer0.occupancy           1519998                       # Layer occupancy (ticks)
system.tol2bus.respLayer0.utilization             0.0                       # Layer utilization (%)
system.voltage_domain.voltage                       1                       # Voltage in Volts
system.clk_domain.clock                          1000                       # Clock period in ticks
system.l2.pwrStateResidencyTicks::UNDEFINED  38901231875                       # Cumulative time (in ticks) in various power states
system.l2.demand_hits::.cpu.inst                   54                       # number of demand (read+write) hits
system.l2.demand_hits::.cpu.data                   23                       # number of demand (read+write) hits
system.l2.demand_hits::total                       77                       # number of demand (read+write) hits
system.l2.overall_hits::.cpu.inst                  54                       # number of overall hits
system.l2.overall_hits::.cpu.data                  23                       # number of overall hits
system.l2.overall_hits::total                      77                       # number of overall hits
system.l2.demand_misses::.cpu.inst                757                       # number of demand (read+write) misses
system.l2.demand_misses::.cpu.data                300                       # number of demand (read+write) misses
system.l2.demand_misses::total                   1057                       # number of demand (read+write) misses
system.l2.overall_misses::.cpu.inst               757                       # number of overall misses
system.l2.overall_misses::.cpu.data               300                       # number of overall misses
system.l2.overall_misses::total                  1057                       # number of overall misses
system.l2.demand_miss_latency::.cpu.inst     63198125                       # number of demand (read+write) miss cycles
system.l2.demand_miss_latency::.cpu.data     28408125                       # number of demand (read+write) miss cycles
system.l2.demand_miss_latency::total         91606250                       # number of demand (read+write) miss cycles
system.l2.overall_miss_latency::.cpu.inst     63198125                       # number of overall miss cycles
system.l2.overall_miss_latency::.cpu.data     28408125                       # number of overall miss cycles
system.l2.overall_miss_latency::total        91606250                       # number of overall miss cycles
system.l2.demand_accesses::.cpu.inst              811                       # number of demand (read+write) accesses
system.l2.demand_accesses::.cpu.data              323                       # number of demand (read+write) accesses
system.l2.demand_accesses::total                 1134                       # number of demand (read+write) accesses
system.l2.overall_accesses::.cpu.inst             811                       # number of overall (read+write) accesses
system.l2.overall_accesses::.cpu.data             323                       # number of overall (read+write) accesses
system.l2.overall_accesses::total                1134                       # number of overall (read+write) accesses
system.l2.demand_miss_rate::.cpu.inst        0.933416                       # miss rate for demand accesses
system.l2.demand_miss_rate::.cpu.data        0.928793                       # miss rate for demand accesses
system.l2.demand_miss_rate::total            0.932099                       # miss rate for demand accesses
system.l2.overall_miss_rate::.cpu.inst       0.933416                       # miss rate for overall accesses
system.l2.overall_miss_rate::.cpu.data       0.928793                       # miss rate for overall accesses
system.l2.overall_miss_rate::total           0.932099                       # miss rate for overall accesses
system.l2.demand_avg_miss_latency::.cpu.inst 83484.973580                       # average overall miss latency
system.l2.demand_avg_miss_latency::.cpu.data 94693.750000                       # average overall miss latency
system.l2.demand_avg_miss_latency::total 86666.272469                       # average overall miss latency
system.l2.overall_avg_miss_latency::.cpu.inst 83484.973580                       # average overall miss latency
system.l2.overall_avg_miss_latency::.cpu.data 94693.750000                       # average overall miss latency
system.l2.overall_avg_miss_latency::total 86666.272469                       # average overall miss latency
system.l2.blocked_cycles::no_mshrs                  0                       # number of cycles access was blocked
system.l2.blocked_cycles::no_targets                0                       # number of cycles access was blocked
system.l2.blocked::no_mshrs                         0                       # number of cycles access was blocked
system.l2.blocked::no_targets                       0                       # number of cycles access was blocked
system.l2.avg_blocked_cycles::no_mshrs            nan                       # average number of cycles each access was blocked
system.l2.avg_blocked_cycles::no_targets          nan                       # average number of cycles each access was blocked
system.l2.demand_mshr_hits::.cpu.inst               2                       # number of demand (read+write) MSHR hits
system.l2.demand_mshr_hits::.cpu.data               7                       # number of demand (read+write) MSHR hits
system.l2.demand_mshr_hits::total                   9                       # number of demand (read+write) MSHR hits
system.l2.overall_mshr_hits::.cpu.inst              2                       # number of overall MSHR hits
system.l2.overall_mshr_hits::.cpu.data              7                       # number of overall MSHR hits
system.l2.overall_mshr_hits::total                  9                       # number of overall MSHR hits
system.l2.demand_mshr_misses::.cpu.inst           755                       # number of demand (read+write) MSHR misses
system.l2.demand_mshr_misses::.cpu.data           293                       # number of demand (read+write) MSHR misses
system.l2.demand_mshr_misses::total              1048                       # number of demand (read+write) MSHR misses
system.l2.overall_mshr_misses::.cpu.inst          755                       # number of overall MSHR misses
system.l2.overall_mshr_misses::.cpu.data          293                       # number of overall MSHR misses
system.l2.overall_mshr_misses::total             1048                       # number of overall MSHR misses
system.l2.demand_mshr_miss_latency::.cpu.inst     53407625                       # number of demand (read+write) MSHR miss cycles
system.l2.demand_mshr_miss_latency::.cpu.data     23963750                       # number of demand (read+write) MSHR miss cycles
system.l2.demand_mshr_miss_latency::total     77371375                       # number of demand (read+write) MSHR miss cycles
system.l2.overall_mshr_miss_latency::.cpu.inst     53407625                       # number of overall MSHR miss cycles
system.l2.overall_mshr_miss_latency::.cpu.data     23963750                       # number of overall MSHR miss cycles
system.l2.overall_mshr_miss_latency::total     77371375                       # number of overall MSHR miss cycles
system.l2.demand_mshr_miss_rate::.cpu.inst     0.930949                       # mshr miss rate for demand accesses
system.l2.demand_mshr_miss_rate::.cpu.data     0.907121                       # mshr miss rate for demand accesses
system.l2.demand_mshr_miss_rate::total       0.924162                       # mshr miss rate for demand accesses
system.l2.overall_mshr_miss_rate::.cpu.inst     0.930949                       # mshr miss rate for overall accesses
system.l2.overall_mshr_miss_rate::.cpu.data     0.907121                       # mshr miss rate for overall accesses
system.l2.overall_mshr_miss_rate::total      0.924162                       # mshr miss rate for overall accesses
system.l2.demand_avg_mshr_miss_latency::.cpu.inst 70738.576159                       # average overall mshr miss latency
system.l2.demand_avg_mshr_miss_latency::.cpu.data 81787.542662                       # average overall mshr miss latency
system.l2.demand_avg_mshr_miss_latency::total 73827.647901                       # average overall mshr miss latency
system.l2.overall_avg_mshr_miss_latency::.cpu.inst 70738.576159                       # average overall mshr miss latency
system.l2.overall_avg_mshr_miss_latency::.cpu.data 81787.542662                       # average overall mshr miss latency
system.l2.overall_avg_mshr_miss_latency::total 73827.647901                       # average overall mshr miss latency
system.l2.replacements                              0                       # number of replacements
system.l2.WritebackDirty_hits::.writebacks            2                       # number of WritebackDirty hits
system.l2.WritebackDirty_hits::total                2                       # number of WritebackDirty hits
system.l2.WritebackDirty_accesses::.writebacks            2                       # number of WritebackDirty accesses(hits+misses)
system.l2.WritebackDirty_accesses::total            2                       # number of WritebackDirty accesses(hits+misses)
system.l2.WritebackClean_hits::.writebacks          274                       # number of WritebackClean hits
system.l2.WritebackClean_hits::total              274                       # number of WritebackClean hits
system.l2.WritebackClean_accesses::.writebacks          274                       # number of WritebackClean accesses(hits+misses)
system.l2.WritebackClean_accesses::total          274                       # number of WritebackClean accesses(hits+misses)
system.l2.ReadExReq_misses::.cpu.data             130                       # number of ReadExReq misses
system.l2.ReadExReq_misses::total                 130                       # number of ReadExReq misses
system.l2.ReadExReq_miss_latency::.cpu.data     11875000                       # number of ReadExReq miss cycles
system.l2.ReadExReq_miss_latency::total      11875000                       # number of ReadExReq miss cycles
system.l2.ReadExReq_accesses::.cpu.data           130                       # number of ReadExReq accesses(hits+misses)
system.l2.ReadExReq_accesses::total               130                       # number of ReadExReq accesses(hits+misses)
system.l2.ReadExReq_miss_rate::.cpu.data            1                       # miss rate for ReadExReq accesses
system.l2.ReadExReq_miss_rate::total                1                       # miss rate for ReadExReq accesses
system.l2.ReadExReq_avg_miss_latency::.cpu.data 91346.153846                       # average ReadExReq miss latency
system.l2.ReadExReq_avg_miss_latency::total 91346.153846                       # average ReadExReq miss latency
system.l2.ReadExReq_mshr_misses::.cpu.data          130                       # number of ReadExReq MSHR misses
system.l2.ReadExReq_mshr_misses::total            130                       # number of ReadExReq MSHR misses
system.l2.ReadExReq_mshr_miss_latency::.cpu.data     10219250                       # number of ReadExReq MSHR miss cycles
system.l2.ReadExReq_mshr_miss_latency::total     10219250                       # number of ReadExReq MSHR miss cycles
system.l2.ReadExReq_mshr_miss_rate::.cpu.data            1                       # mshr miss rate for ReadExReq accesses
system.l2.ReadExReq_mshr_miss_rate::total            1                       # mshr miss rate for ReadExReq accesses
system.l2.ReadExReq_avg_mshr_miss_latency::.cpu.data 78609.615385                       # average ReadExReq mshr miss latency
system.l2.ReadExReq_avg_mshr_miss_latency::total 78609.615385                       # average ReadExReq mshr miss latency
system.l2.ReadCleanReq_hits::.cpu.inst             54                       # number of ReadCleanReq hits
system.l2.ReadCleanReq_hits::total                 54                       # number of ReadCleanReq hits
system.l2.ReadCleanReq_misses::.cpu.inst          757                       # number of ReadCleanReq misses
system.l2.ReadCleanReq_misses::total              757                       # number of ReadCleanReq misses
system.l2.ReadCleanReq_miss_latency::.cpu.inst     63198125                       # number of ReadCleanReq miss cycles
system.l2.ReadCleanReq_miss_latency::total     63198125                       # number of ReadCleanReq miss cycles
system.l2.ReadCleanReq_accesses::.cpu.inst          811                       # number of ReadCleanReq accesses(hits+misses)
system.l2.ReadCleanReq_accesses::total            811                       # number of ReadCleanReq accesses(hits+misses)
system.l2.ReadCleanReq_miss_rate::.cpu.inst     0.933416                       # miss rate for ReadCleanReq accesses
system.l2.ReadCleanReq_miss_rate::total      0.933416                       # miss rate for ReadCleanReq accesses
system.l2.ReadCleanReq_avg_miss_latency::.cpu.inst 83484.973580                       # average ReadCleanReq miss latency
system.l2.ReadCleanReq_avg_miss_latency::total 83484.973580                       # average ReadCleanReq miss latency
system.l2.ReadCleanReq_mshr_hits::.cpu.inst            2                       # number of ReadCleanReq MSHR hits
system.l2.ReadCleanReq_mshr_hits::total             2                       # number of ReadCleanReq MSHR hits
system.l2.ReadCleanReq_mshr_misses::.cpu.inst          755                       # number of ReadCleanReq MSHR misses
system.l2.ReadCleanReq_mshr_misses::total          755                       # number of ReadCleanReq MSHR misses
system.l2.ReadCleanReq_mshr_miss_latency::.cpu.inst     53407625                       # number of ReadCleanReq MSHR miss cycles
system.l2.ReadCleanReq_mshr_miss_latency::total     53407625                       # number of ReadCleanReq MSHR miss cycles
system.l2.ReadCleanReq_mshr_miss_rate::.cpu.inst     0.930949                       # mshr miss rate for ReadCleanReq accesses
system.l2.ReadCleanReq_mshr_miss_rate::total     0.930949                       # mshr miss rate for ReadCleanReq accesses
system.l2.ReadCleanReq_avg_mshr_miss_latency::.cpu.inst 70738.576159                       # average ReadCleanReq mshr miss latency
[...]
system.cpu.icache.ReadReq_accesses::total     23645061                       # number of ReadReq accesses(hits+misses)
system.cpu.icache.ReadReq_miss_rate::.cpu.inst     0.000042                       # miss rate for ReadReq accesses
system.cpu.icache.ReadReq_miss_rate::total     0.000042                       # miss rate for ReadReq accesses
system.cpu.icache.ReadReq_avg_miss_latency::.cpu.inst 78061.874000                       # average ReadReq miss latency
system.cpu.icache.ReadReq_avg_miss_latency::total 78061.874000                       # average ReadReq miss latency
system.cpu.icache.ReadReq_mshr_hits::.cpu.inst          189                       # number of ReadReq MSHR hits
system.cpu.icache.ReadReq_mshr_hits::total          189                       # number of ReadReq MSHR hits
system.cpu.icache.ReadReq_mshr_misses::.cpu.inst          811                       # number of ReadReq MSHR misses
system.cpu.icache.ReadReq_mshr_misses::total          811                       # number of ReadReq MSHR misses
system.cpu.icache.ReadReq_mshr_miss_latency::.cpu.inst     65451875                       # number of ReadReq MSHR miss cycles
system.cpu.icache.ReadReq_mshr_miss_latency::total     65451875                       # number of ReadReq MSHR miss cycles
system.cpu.icache.ReadReq_mshr_miss_rate::.cpu.inst     0.000034                       # mshr miss rate for ReadReq accesses
system.cpu.icache.ReadReq_mshr_miss_rate::total     0.000034                       # mshr miss rate for ReadReq accesses
system.cpu.icache.ReadReq_avg_mshr_miss_latency::.cpu.inst 80705.147965                       # average ReadReq mshr miss latency
system.cpu.icache.ReadReq_avg_mshr_miss_latency::total 80705.147965                       # average ReadReq mshr miss latency
system.cpu.icache.tags.pwrStateResidencyTicks::UNDEFINED  38901231875                       # Cumulative time (in ticks) in various power states
system.cpu.icache.tags.tagsinuse           428.824250                       # Cycle average of tags in use
system.cpu.icache.tags.total_refs            23644871                       # Total number of references to valid blocks.
system.cpu.icache.tags.sampled_refs               810                       # Sample count of references to valid blocks.
system.cpu.icache.tags.avg_refs          29191.198765                       # Average number of references to valid blocks.
system.cpu.icache.tags.warmup_cycle             91250                       # Cycle when the warmup percentage was hit.
system.cpu.icache.tags.occ_blocks::.cpu.inst   428.824250                       # Average occupied blocks per requestor
system.cpu.icache.tags.occ_percent::.cpu.inst     0.837547                       # Average percentage of cache occupancy
system.cpu.icache.tags.occ_percent::total     0.837547                       # Average percentage of cache occupancy
system.cpu.icache.tags.occ_task_id_blocks::1024          505                       # Occupied blocks per task id
system.cpu.icache.tags.age_task_id_blocks_1024::0           70                       # Occupied blocks per task id
system.cpu.icache.tags.age_task_id_blocks_1024::1          193                       # Occupied blocks per task id
system.cpu.icache.tags.age_task_id_blocks_1024::4          242                       # Occupied blocks per task id
system.cpu.icache.tags.occ_task_id_percent::1024     0.986328                       # Percentage of cache occupancy per task id
system.cpu.icache.tags.tag_accesses          94581054                       # Number of tag accesses
system.cpu.icache.tags.data_accesses         94581054                       # Number of data accesses
system.cpu.dtb.walker.pwrStateResidencyTicks::UNDEFINED  38901231875                       # Cumulative time (in ticks) in various power states
system.cpu.dtb.stage2_mmu.stage2_tlb.walker.pwrStateResidencyTicks::UNDEFINED  38901231875                       # Cumulative time (in ticks) in various power states
system.cpu.itb.walker.pwrStateResidencyTicks::UNDEFINED  38901231875                       # Cumulative time (in ticks) in various power states
system.cpu.itb.stage2_mmu.stage2_tlb.walker.pwrStateResidencyTicks::UNDEFINED  38901231875                       # Cumulative time (in ticks) in various power states
system.cpu.dcache.pwrStateResidencyTicks::UNDEFINED  38901231875                       # Cumulative time (in ticks) in various power states
system.cpu.dcache.demand_hits::.cpu.data     13429955                       # number of demand (read+write) hits
system.cpu.dcache.demand_hits::total         13429955                       # number of demand (read+write) hits
system.cpu.dcache.overall_hits::.cpu.data     13429955                       # number of overall hits
system.cpu.dcache.overall_hits::total        13429955                       # number of overall hits
system.cpu.dcache.demand_misses::.cpu.data         1560                       # number of demand (read+write) misses
system.cpu.dcache.demand_misses::total           1560                       # number of demand (read+write) misses
system.cpu.dcache.overall_misses::.cpu.data         1560                       # number of overall misses
system.cpu.dcache.overall_misses::total          1560                       # number of overall misses
system.cpu.dcache.demand_miss_latency::.cpu.data    123278124                       # number of demand (read+write) miss cycles
system.cpu.dcache.demand_miss_latency::total    123278124                       # number of demand (read+write) miss cycles
system.cpu.dcache.overall_miss_latency::.cpu.data    123278124                       # number of overall miss cycles
system.cpu.dcache.overall_miss_latency::total    123278124                       # number of overall miss cycles
system.cpu.dcache.demand_accesses::.cpu.data     13431515                       # number of demand (read+write) accesses
system.cpu.dcache.demand_accesses::total     13431515                       # number of demand (read+write) accesses
system.cpu.dcache.overall_accesses::.cpu.data     13431515                       # number of overall (read+write) accesses
system.cpu.dcache.overall_accesses::total     13431515                       # number of overall (read+write) accesses
system.cpu.dcache.demand_miss_rate::.cpu.data     0.000116                       # miss rate for demand accesses
system.cpu.dcache.demand_miss_rate::total     0.000116                       # miss rate for demand accesses
system.cpu.dcache.overall_miss_rate::.cpu.data     0.000116                       # miss rate for overall accesses
system.cpu.dcache.overall_miss_rate::total     0.000116                       # miss rate for overall accesses
system.cpu.dcache.demand_avg_miss_latency::.cpu.data 79024.438462                       # average overall miss latency
system.cpu.dcache.demand_avg_miss_latency::total 79024.438462                       # average overall miss latency
system.cpu.dcache.overall_avg_miss_latency::.cpu.data 79024.438462                       # average overall miss latency
system.cpu.dcache.overall_avg_miss_latency::total 79024.438462                       # average overall miss latency
system.cpu.dcache.blocked_cycles::no_mshrs          241                       # number of cycles access was blocked
system.cpu.dcache.blocked_cycles::no_targets            0                       # number of cycles access was blocked
system.cpu.dcache.blocked::no_mshrs                 6                       # number of cycles access was blocked
system.cpu.dcache.blocked::no_targets               0                       # number of cycles access was blocked
system.cpu.dcache.avg_blocked_cycles::no_mshrs    40.166667                       # average number of cycles each access was blocked
system.cpu.dcache.avg_blocked_cycles::no_targets          nan                       # average number of cycles each access was blocked
system.cpu.dcache.writebacks::.writebacks            2                       # number of writebacks
system.cpu.dcache.writebacks::total                 2                       # number of writebacks
system.cpu.dcache.demand_mshr_hits::.cpu.data         1237                       # number of demand (read+write) MSHR hits
system.cpu.dcache.demand_mshr_hits::total         1237                       # number of demand (read+write) MSHR hits
system.cpu.dcache.overall_mshr_hits::.cpu.data         1237                       # number of overall MSHR hits
system.cpu.dcache.overall_mshr_hits::total         1237                       # number of overall MSHR hits
system.cpu.dcache.demand_mshr_misses::.cpu.data          323                       # number of demand (read+write) MSHR misses
system.cpu.dcache.demand_mshr_misses::total          323                       # number of demand (read+write) MSHR misses
system.cpu.dcache.overall_mshr_misses::.cpu.data          323                       # number of overall MSHR misses
system.cpu.dcache.overall_mshr_misses::total          323                       # number of overall MSHR misses
system.cpu.dcache.demand_mshr_miss_latency::.cpu.data     29346875                       # number of demand (read+write) MSHR miss cycles
system.cpu.dcache.demand_mshr_miss_latency::total     29346875                       # number of demand (read+write) MSHR miss cycles
system.cpu.dcache.overall_mshr_miss_latency::.cpu.data     29346875                       # number of overall MSHR miss cycles
system.cpu.dcache.overall_mshr_miss_latency::total     29346875                       # number of overall MSHR miss cycles
system.cpu.dcache.demand_mshr_miss_rate::.cpu.data     0.000024                       # mshr miss rate for demand accesses
system.cpu.dcache.demand_mshr_miss_rate::total     0.000024                       # mshr miss rate for demand accesses
system.cpu.dcache.overall_mshr_miss_rate::.cpu.data     0.000024                       # mshr miss rate for overall accesses
system.cpu.dcache.overall_mshr_miss_rate::total     0.000024                       # mshr miss rate for overall accesses
system.cpu.dcache.demand_avg_mshr_miss_latency::.cpu.data 90857.198142                       # average overall mshr miss latency
system.cpu.dcache.demand_avg_mshr_miss_latency::total 90857.198142                       # average overall mshr miss latency
system.cpu.dcache.overall_avg_mshr_miss_latency::.cpu.data 90857.198142                       # average overall mshr miss latency
system.cpu.dcache.overall_avg_mshr_miss_latency::total 90857.198142                       # average overall mshr miss latency
system.cpu.dcache.replacements                      7                       # number of replacements
system.cpu.dcache.ReadReq_hits::.cpu.data      8571088                       # number of ReadReq hits
system.cpu.dcache.ReadReq_hits::total         8571088                       # number of ReadReq hits
system.cpu.dcache.ReadReq_misses::.cpu.data          565                       # number of ReadReq misses
system.cpu.dcache.ReadReq_misses::total           565                       # number of ReadReq misses
system.cpu.dcache.ReadReq_miss_latency::.cpu.data     39137500                       # number of ReadReq miss cycles
system.cpu.dcache.ReadReq_miss_latency::total     39137500                       # number of ReadReq miss cycles
system.cpu.dcache.ReadReq_accesses::.cpu.data      8571653                       # number of ReadReq accesses(hits+misses)
system.cpu.dcache.ReadReq_accesses::total      8571653                       # number of ReadReq accesses(hits+misses)
system.cpu.dcache.ReadReq_miss_rate::.cpu.data     0.000066                       # miss rate for ReadReq accesses
system.cpu.dcache.ReadReq_miss_rate::total     0.000066                       # miss rate for ReadReq accesses
system.cpu.dcache.ReadReq_avg_miss_latency::.cpu.data 69269.911504                       # average ReadReq miss latency
system.cpu.dcache.ReadReq_avg_miss_latency::total 69269.911504                       # average ReadReq miss latency
system.cpu.dcache.ReadReq_mshr_hits::.cpu.data          372                       # number of ReadReq MSHR hits
system.cpu.dcache.ReadReq_mshr_hits::total          372                       # number of ReadReq MSHR hits
system.cpu.dcache.ReadReq_mshr_misses::.cpu.data          193                       # number of ReadReq MSHR misses
system.cpu.dcache.ReadReq_mshr_misses::total          193                       # number of ReadReq MSHR misses
system.cpu.dcache.ReadReq_mshr_miss_latency::.cpu.data     17227500                       # number of ReadReq MSHR miss cycles
system.cpu.dcache.ReadReq_mshr_miss_latency::total     17227500                       # number of ReadReq MSHR miss cycles
system.cpu.dcache.ReadReq_mshr_miss_rate::.cpu.data     0.000023                       # mshr miss rate for ReadReq accesses
system.cpu.dcache.ReadReq_mshr_miss_rate::total     0.000023                       # mshr miss rate for ReadReq accesses
system.cpu.dcache.ReadReq_avg_mshr_miss_latency::.cpu.data 89261.658031                       # average ReadReq mshr miss latency
system.cpu.dcache.ReadReq_avg_mshr_miss_latency::total 89261.658031                       # average ReadReq mshr miss latency
system.cpu.dcache.WriteReq_hits::.cpu.data      4858867                       # number of WriteReq hits
system.cpu.dcache.WriteReq_hits::total        4858867                       # number of WriteReq hits
system.cpu.dcache.WriteReq_misses::.cpu.data          995                       # number of WriteReq misses
system.cpu.dcache.WriteReq_misses::total          995                       # number of WriteReq misses
system.cpu.dcache.WriteReq_miss_latency::.cpu.data     84140624                       # number of WriteReq miss cycles
system.cpu.dcache.WriteReq_miss_latency::total     84140624                       # number of WriteReq miss cycles
system.cpu.dcache.WriteReq_accesses::.cpu.data      4859862                       # number of WriteReq accesses(hits+misses)
system.cpu.dcache.WriteReq_accesses::total      4859862                       # number of WriteReq accesses(hits+misses)
system.cpu.dcache.WriteReq_miss_rate::.cpu.data     0.000205                       # miss rate for WriteReq accesses
system.cpu.dcache.WriteReq_miss_rate::total     0.000205                       # miss rate for WriteReq accesses
system.cpu.dcache.WriteReq_avg_miss_latency::.cpu.data 84563.441206                       # average WriteReq miss latency
system.cpu.dcache.WriteReq_avg_miss_latency::total 84563.441206                       # average WriteReq miss latency
system.cpu.dcache.WriteReq_mshr_hits::.cpu.data          865                       # number of WriteReq MSHR hits
system.cpu.dcache.WriteReq_mshr_hits::total          865                       # number of WriteReq MSHR hits
system.cpu.dcache.WriteReq_mshr_misses::.cpu.data          130                       # number of WriteReq MSHR misses
system.cpu.dcache.WriteReq_mshr_misses::total          130                       # number of WriteReq MSHR misses
system.cpu.dcache.WriteReq_mshr_miss_latency::.cpu.data     12119375                       # number of WriteReq MSHR miss cycles
system.cpu.dcache.WriteReq_mshr_miss_latency::total     12119375                       # number of WriteReq MSHR miss cycles
system.cpu.dcache.WriteReq_mshr_miss_rate::.cpu.data     0.000027                       # mshr miss rate for WriteReq accesses
system.cpu.dcache.WriteReq_mshr_miss_rate::total     0.000027                       # mshr miss rate for WriteReq accesses
system.cpu.dcache.WriteReq_avg_mshr_miss_latency::.cpu.data 93225.961538                       # average WriteReq mshr miss latency
system.cpu.dcache.WriteReq_avg_mshr_miss_latency::total 93225.961538                       # average WriteReq mshr miss latency
system.cpu.dcache.LoadLockedReq_hits::.cpu.data           49                       # number of LoadLockedReq hits
system.cpu.dcache.LoadLockedReq_hits::total           49                       # number of LoadLockedReq hits
system.cpu.dcache.LoadLockedReq_misses::.cpu.data            2                       # number of LoadLockedReq misses
system.cpu.dcache.LoadLockedReq_misses::total            2                       # number of LoadLockedReq misses
system.cpu.dcache.LoadLockedReq_miss_latency::.cpu.data       133125                       # number of LoadLockedReq miss cycles
system.cpu.dcache.LoadLockedReq_miss_latency::total       133125                       # number of LoadLockedReq miss cycles
system.cpu.dcache.LoadLockedReq_accesses::.cpu.data           51                       # number of LoadLockedReq accesses(hits+misses)
system.cpu.dcache.LoadLockedReq_accesses::total           51                       # number of LoadLockedReq accesses(hits+misses)
system.cpu.dcache.LoadLockedReq_miss_rate::.cpu.data     0.039216                       # miss rate for LoadLockedReq accesses
system.cpu.dcache.LoadLockedReq_miss_rate::total     0.039216                       # miss rate for LoadLockedReq accesses
system.cpu.dcache.LoadLockedReq_avg_miss_latency::.cpu.data 66562.500000                       # average LoadLockedReq miss latency
system.cpu.dcache.LoadLockedReq_avg_miss_latency::total 66562.500000                       # average LoadLockedReq miss latency
system.cpu.dcache.LoadLockedReq_mshr_hits::.cpu.data            2                       # number of LoadLockedReq MSHR hits
system.cpu.dcache.LoadLockedReq_mshr_hits::total            2                       # number of LoadLockedReq MSHR hits
system.cpu.dcache.StoreCondReq_hits::.cpu.data           51                       # number of StoreCondReq hits
system.cpu.dcache.StoreCondReq_hits::total           51                       # number of StoreCondReq hits
system.cpu.dcache.StoreCondReq_accesses::.cpu.data           51                       # number of StoreCondReq accesses(hits+misses)
system.cpu.dcache.StoreCondReq_accesses::total           51                       # number of StoreCondReq accesses(hits+misses)
system.cpu.dcache.tags.pwrStateResidencyTicks::UNDEFINED  38901231875                       # Cumulative time (in ticks) in various power states
system.cpu.dcache.tags.tagsinuse           259.871011                       # Cycle average of tags in use
system.cpu.dcache.tags.total_refs            13430377                       # Total number of references to valid blocks.
system.cpu.dcache.tags.sampled_refs               322                       # Sample count of references to valid blocks.
system.cpu.dcache.tags.avg_refs          41709.245342                       # Average number of references to valid blocks.
system.cpu.dcache.tags.warmup_cycle            173750                       # Cycle when the warmup percentage was hit.
system.cpu.dcache.tags.occ_blocks::.cpu.data   259.871011                       # Average occupied blocks per requestor
system.cpu.dcache.tags.occ_percent::.cpu.data     0.507561                       # Average percentage of cache occupancy
system.cpu.dcache.tags.occ_percent::total     0.507561                       # Average percentage of cache occupancy
system.cpu.dcache.tags.occ_task_id_blocks::1024          315                       # Occupied blocks per task id
system.cpu.dcache.tags.age_task_id_blocks_1024::0           23                       # Occupied blocks per task id
system.cpu.dcache.tags.age_task_id_blocks_1024::1           39                       # Occupied blocks per task id
system.cpu.dcache.tags.age_task_id_blocks_1024::4          253                       # Occupied blocks per task id
system.cpu.dcache.tags.occ_task_id_percent::1024     0.615234                       # Percentage of cache occupancy per task id
system.cpu.dcache.tags.tag_accesses          53726790                       # Number of tag accesses
system.cpu.dcache.tags.data_accesses         53726790                       # Number of data accesses

---------- End Simulation Statistics   ----------
