
---------- Begin Simulation Statistics ----------
final_tick                                58342393750                       # Number of ticks from beginning of simulation (restored from checkpoints and never reset)
host_inst_rate                                 285091                       # Simulator instruction rate (inst/s)
host_mem_usage                                 676060                       # Number of bytes of host memory used
host_op_rate                                   285096                       # Simulator op (including micro ops) rate (op/s)
host_seconds                                   350.77                       # Real time elapsed on the host
host_tick_rate                              166328663                       # Simulator tick rate (ticks/s)
sim_freq                                 1000000000000                       # Frequency of simulated ticks
sim_insts                                   100000000                       # Number of instructions simulated
sim_ops                                     100002025                       # Number of ops (including micro ops) simulated
sim_seconds                                  0.058342                       # Number of seconds simulated
sim_ticks                                 58342393750                       # Number of ticks simulated
system.cpu.branchPred.BTBCorrect                    0                       # Number of correct BTB predictions (this stat may not work properly.
system.cpu.branchPred.BTBHitPct             99.586823                       # BTB Hit Percentage
system.cpu.branchPred.BTBHits                 4094807                       # Number of BTB hits
system.cpu.branchPred.BTBLookups              4111796                       # Number of BTB lookups
system.cpu.branchPred.RASInCorrect                 58                       # Number of incorrect RAS predictions.
system.cpu.branchPred.condIncorrect            179458                       # Number of conditional branches incorrect
system.cpu.branchPred.condPredicted           4096375                       # Number of conditional branches predicted
system.cpu.branchPred.indirectHits                 16                       # Number of indirect target hits.
system.cpu.branchPred.indirectLookups             163                       # Number of indirect predictor lookups.
system.cpu.branchPred.indirectMisses              147                       # Number of indirect misses.
system.cpu.branchPred.lookups                 6272563                       # Number of BP lookups
system.cpu.branchPred.usedRAS                  686538                       # Number of times the RAS was used to get a target.
system.cpu.branchPredindirectMispredicted           66                       # Number of mispredicted indirect branches.
system.cpu.cc_regfile_reads                 355376010                       # number of cc regfile reads
system.cpu.cc_regfile_writes                 42276769                       # number of cc regfile writes
system.cpu.commit.amos                              0                       # Number of atomic instructions committed
system.cpu.commit.branchMispredicts            179212                       # The number of times a branch was mispredicted
system.cpu.commit.branches                    5915725                       # Number of branches committed
system.cpu.commit.bw_lim_events               3340676                       # number cycles where commit BW limit reached
system.cpu.commit.commitNonSpecStalls              50                       # The number of times commit has been forced to stall to communicate backwards
system.cpu.commit.commitSquashedInsts          414357                       # The number of squashed insts skipped by commit
system.cpu.commit.committedInsts            100000000                       # Number of instructions committed
system.cpu.commit.committedOps              100002025                       # Number of ops (including micro ops) committed
system.cpu.commit.committed_per_cycle::samples     93118355                       # Number of insts commited each cycle
system.cpu.commit.committed_per_cycle::mean     1.073924                       # Number of insts commited each cycle
system.cpu.commit.committed_per_cycle::stdev     1.681625                       # Number of insts commited each cycle
system.cpu.commit.committed_per_cycle::underflows            0      0.00%      0.00% # Number of insts commited each cycle
system.cpu.commit.committed_per_cycle::0     38360773     41.20%     41.20% # Number of insts commited each cycle
system.cpu.commit.committed_per_cycle::1     41899379     45.00%     86.19% # Number of insts commited each cycle
system.cpu.commit.committed_per_cycle::2      1641339      1.76%     87.95% # Number of insts commited each cycle
system.cpu.commit.committed_per_cycle::3      5481200      5.89%     93.84% # Number of insts commited each cycle
system.cpu.commit.committed_per_cycle::4      1138632      1.22%     95.06% # Number of insts commited each cycle
system.cpu.commit.committed_per_cycle::5       708449      0.76%     95.82% # Number of insts commited each cycle
system.cpu.commit.committed_per_cycle::6       281162      0.30%     96.13% # Number of insts commited each cycle
system.cpu.commit.committed_per_cycle::7       266745      0.29%     96.41% # Number of insts commited each cycle
system.cpu.commit.committed_per_cycle::8      3340676      3.59%    100.00% # Number of insts commited each cycle
system.cpu.commit.committed_per_cycle::overflows            0      0.00%    100.00% # Number of insts commited each cycle
system.cpu.commit.committed_per_cycle::min_value            0                       # Number of insts commited each cycle
system.cpu.commit.committed_per_cycle::max_value            8                       # Number of insts commited each cycle
system.cpu.commit.committed_per_cycle::total     93118355                       # Number of insts commited each cycle
system.cpu.commit.fp_insts                          0                       # Number of committed floating point instructions.
system.cpu.commit.function_calls               683421                       # Number of function calls committed.
system.cpu.commit.int_insts                  95453223                       # Number of committed integer instructions.
system.cpu.commit.loads                      20659436                       # Number of loads committed
system.cpu.commit.membars                          20                       # Number of memory barriers committed
system.cpu.commit.op_class_0::No_OpClass            0      0.00%      0.00% # Class of committed instruction
system.cpu.commit.op_class_0::IntAlu         61232383     61.23%     61.23% # Class of committed instruction
system.cpu.commit.op_class_0::IntMult              10      0.00%     61.23% # Class of committed instruction
system.cpu.commit.op_class_0::IntDiv                0      0.00%     61.23% # Class of committed instruction
system.cpu.commit.op_class_0::FloatAdd              0      0.00%     61.23% # Class of committed instruction
system.cpu.commit.op_class_0::FloatCmp              0      0.00%     61.23% # Class of committed instruction
system.cpu.commit.op_class_0::FloatCvt              0      0.00%     61.23% # Class of committed instruction
system.cpu.commit.op_class_0::FloatMult             0      0.00%     61.23% # Class of committed instruction
system.cpu.commit.op_class_0::FloatMultAcc            0      0.00%     61.23% # Class of committed instruction
system.cpu.commit.op_class_0::FloatDiv              0      0.00%     61.23% # Class of committed instruction
system.cpu.commit.op_class_0::FloatMisc             0      0.00%     61.23% # Class of committed instruction
system.cpu.commit.op_class_0::FloatSqrt             0      0.00%     61.23% # Class of committed instruction
system.cpu.commit.op_class_0::SimdAdd               0      0.00%     61.23% # Class of committed instruction
system.cpu.commit.op_class_0::SimdAddAcc            0      0.00%     61.23% # Class of committed instruction
system.cpu.commit.op_class_0::SimdAlu               0      0.00%     61.23% # Class of committed instruction
system.cpu.commit.op_class_0::SimdCmp               0      0.00%     61.23% # Class of committed instruction
system.cpu.commit.op_class_0::SimdCvt               0      0.00%     61.23% # Class of committed instruction
system.cpu.commit.op_class_0::SimdMisc              0      0.00%     61.23% # Class of committed instruction
system.cpu.commit.op_class_0::SimdMult              0      0.00%     61.23% # Class of committed instruction
system.cpu.commit.op_class_0::SimdMultAcc            0      0.00%     61.23% # Class of committed instruction
system.cpu.commit.op_class_0::SimdShift             0      0.00%     61.23% # Class of committed instruction
system.cpu.commit.op_class_0::SimdShiftAcc            0      0.00%     61.23% # Class of committed instruction
system.cpu.commit.op_class_0::SimdDiv               0      0.00%     61.23% # Class of committed instruction
system.cpu.commit.op_class_0::SimdSqrt              0      0.00%     61.23% # Class of committed instruction
system.cpu.commit.op_class_0::SimdFloatAdd            0      0.00%     61.23% # Class of committed instruction
system.cpu.commit.op_class_0::SimdFloatAlu            0      0.00%     61.23% # Class of committed instruction
system.cpu.commit.op_class_0::SimdFloatCmp            0      0.00%     61.23% # Class of committed instruction
system.cpu.commit.op_class_0::SimdFloatCvt            0      0.00%     61.23% # Class of committed instruction
system.cpu.commit.op_class_0::SimdFloatDiv            0      0.00%     61.23% # Class of committed instruction
system.cpu.commit.op_class_0::SimdFloatMisc            4      0.00%     61.23% # Class of committed instruction
system.cpu.commit.op_class_0::SimdFloatMult            0      0.00%     61.23% # Class of committed instruction
system.cpu.commit.op_class_0::SimdFloatMultAcc            0      0.00%     61.23% # Class of committed instruction
system.cpu.commit.op_class_0::SimdFloatSqrt            0      0.00%     61.23% # Class of committed instruction
system.cpu.commit.op_class_0::SimdReduceAdd            0      0.00%     61.23% # Class of committed instruction
system.cpu.commit.op_class_0::SimdReduceAlu            0      0.00%     61.23% # Class of committed instruction
system.cpu.commit.op_class_0::SimdReduceCmp            0      0.00%     61.23% # Class of committed instruction
system.cpu.commit.op_class_0::SimdFloatReduceAdd            0      0.00%     61.23% # Class of committed instruction
system.cpu.commit.op_class_0::SimdFloatReduceCmp            0      0.00%     61.23% # Class of committed instruction
system.cpu.commit.op_class_0::SimdAes               0      0.00%     61.23% # Class of committed instruction
system.cpu.commit.op_class_0::SimdAesMix            0      0.00%     61.23% # Class of committed instruction
system.cpu.commit.op_class_0::SimdSha1Hash            0      0.00%     61.23% # Class of committed instruction
system.cpu.commit.op_class_0::SimdSha1Hash2            0      0.00%     61.23% # Class of committed instruction
system.cpu.commit.op_class_0::SimdSha256Hash            0      0.00%     61.23% # Class of committed instruction
system.cpu.commit.op_class_0::SimdSha256Hash2            0      0.00%     61.23% # Class of committed instruction
system.cpu.commit.op_class_0::SimdShaSigma2            0      0.00%     61.23% # Class of committed instruction
system.cpu.commit.op_class_0::SimdShaSigma3            0      0.00%     61.23% # Class of committed instruction
system.cpu.commit.op_class_0::SimdPredAlu            0      0.00%     61.23% # Class of committed instruction
system.cpu.commit.op_class_0::MemRead        20659436     20.66%     81.89% # Class of committed instruction
system.cpu.commit.op_class_0::MemWrite       18110192     18.11%    100.00% # Class of committed instruction
system.cpu.commit.op_class_0::FloatMemRead            0      0.00%    100.00% # Class of committed instruction
system.cpu.commit.op_class_0::FloatMemWrite            0      0.00%    100.00% # Class of committed instruction
system.cpu.commit.op_class_0::IprAccess             0      0.00%    100.00% # Class of committed instruction
system.cpu.commit.op_class_0::InstPrefetch            0      0.00%    100.00% # Class of committed instruction
system.cpu.commit.op_class_0::total         100002025                       # Class of committed instruction
system.cpu.commit.refs                       38769628                       # Number of memory references committed
system.cpu.commit.swp_count                         0                       # Number of s/w prefetches committed
system.cpu.commit.vec_insts                         0                       # Number of committed Vector instructions.
system.cpu.committedInsts                   100000000                       # Number of Instructions Simulated
system.cpu.committedOps                     100002025                       # Number of Ops (including micro ops) Simulated
system.cpu.cpi                               0.933478                       # CPI: Cycles Per Instruction
system.cpu.cpi_total                         0.933478                       # CPI: Total CPI of All Threads
system.cpu.decode.BlockedCycles              30686161                       # Number of cycles decode is blocked
system.cpu.decode.BranchMispred                   276                       # Number of times decode detected a branch misprediction
system.cpu.decode.BranchResolved              4072088                       # Number of times decode resolved a branch
system.cpu.decode.DecodedInsts              101364945                       # Number of instructions handled by decode
system.cpu.decode.IdleCycles                 20172773                       # Number of cycles decode is idle
system.cpu.decode.RunCycles                  35754724                       # Number of cycles decode is running
system.cpu.decode.SquashCycles                 185059                       # Number of cycles decode is squashing
system.cpu.decode.SquashedInsts                361892                       # Number of squashed instructions handled by decode
system.cpu.decode.UnblockCycles               6511753                       # Number of cycles decode is unblocking
system.cpu.dtb.accesses                             0                       # DTB accesses
system.cpu.dtb.align_faults                         0                       # Number of TLB faults due to alignment restrictions
system.cpu.dtb.domain_faults                        0                       # Number of TLB faults due to domain restrictions
system.cpu.dtb.flush_entries                        0                       # Number of entries that have been flushed from TLB
system.cpu.dtb.flush_tlb                            0                       # Number of times complete TLB was flushed
system.cpu.dtb.flush_tlb_asid                       0                       # Number of times TLB was flushed by ASID
system.cpu.dtb.flush_tlb_mva                        0                       # Number of times TLB was flushed by MVA
system.cpu.dtb.flush_tlb_mva_asid                   0                       # Number of times TLB was flushed by MVA & ASID
system.cpu.dtb.hits                                 0                       # DTB hits
system.cpu.dtb.inst_accesses                        0                       # ITB inst accesses
system.cpu.dtb.inst_hits                            0                       # ITB inst hits
system.cpu.dtb.inst_misses                          0                       # ITB inst misses
system.cpu.dtb.misses                               0                       # DTB misses
system.cpu.dtb.perms_faults                         0                       # Number of TLB faults due to permissions restrictions
system.cpu.dtb.prefetch_faults                      0                       # Number of TLB faults due to prefetch
system.cpu.dtb.read_accesses                        0                       # DTB read accesses
system.cpu.dtb.read_hits                            0                       # DTB read hits
system.cpu.dtb.read_misses                          0                       # DTB read misses
system.cpu.dtb.stage2_mmu.stage2_tlb.accesses            0                       # DTB accesses
system.cpu.dtb.stage2_mmu.stage2_tlb.align_faults            0                       # Number of TLB faults due to alignment restrictions
system.cpu.dtb.stage2_mmu.stage2_tlb.domain_faults            0                       # Number of TLB faults due to domain restrictions
system.cpu.dtb.stage2_mmu.stage2_tlb.flush_entries            0                       # Number of entries that have been flushed from TLB
system.cpu.dtb.stage2_mmu.stage2_tlb.flush_tlb            0                       # Number of times complete TLB was flushed
system.cpu.dtb.stage2_mmu.stage2_tlb.flush_tlb_asid            0                       # Number of times TLB was flushed by ASID
system.cpu.dtb.stage2_mmu.stage2_tlb.flush_tlb_mva            0                       # Number of times TLB was flushed by MVA
system.cpu.dtb.stage2_mmu.stage2_tlb.flush_tlb_mva_asid            0                       # Number of times TLB was flushed by MVA & ASID
system.cpu.dtb.stage2_mmu.stage2_tlb.hits            0                       # DTB hits
system.cpu.dtb.stage2_mmu.stage2_tlb.inst_accesses            0                       # ITB inst accesses
system.cpu.dtb.stage2_mmu.stage2_tlb.inst_hits            0                       # ITB inst hits
system.cpu.dtb.stage2_mmu.stage2_tlb.inst_misses            0                       # ITB inst misses
system.cpu.dtb.stage2_mmu.stage2_tlb.misses            0                       # DTB misses
system.cpu.dtb.stage2_mmu.stage2_tlb.perms_faults            0                       # Number of TLB faults due to permissions restrictions
system.cpu.dtb.stage2_mmu.stage2_tlb.prefetch_faults            0                       # Number of TLB faults due to prefetch
system.cpu.dtb.stage2_mmu.stage2_tlb.read_accesses            0                       # DTB read accesses
system.cpu.dtb.stage2_mmu.stage2_tlb.read_hits            0                       # DTB read hits
system.cpu.dtb.stage2_mmu.stage2_tlb.read_misses            0                       # DTB read misses
system.cpu.dtb.stage2_mmu.stage2_tlb.walker.walkRequestOrigin_Requested::Data            0                       # Table walker requests started/completed, data/inst
system.cpu.dtb.stage2_mmu.stage2_tlb.walker.walkRequestOrigin_Requested::Inst            0                       # Table walker requests started/completed, data/inst
system.cpu.dtb.stage2_mmu.stage2_tlb.walker.walkRequestOrigin_Requested::total            0                       # Table walker requests started/completed, data/inst
system.cpu.dtb.stage2_mmu.stage2_tlb.walker.walkRequestOrigin_Completed::Data            0                       # Table walker requests started/completed, data/inst
system.cpu.dtb.stage2_mmu.stage2_tlb.walker.walkRequestOrigin_Completed::Inst            0                       # Table walker requests started/completed, data/inst
system.cpu.dtb.stage2_mmu.stage2_tlb.walker.walkRequestOrigin_Completed::total            0                       # Table walker requests started/completed, data/inst
system.cpu.dtb.stage2_mmu.stage2_tlb.walker.walkRequestOrigin::total            0                       # Table walker requests started/completed, data/inst
system.cpu.dtb.stage2_mmu.stage2_tlb.walker.walks            0                       # Table walker walks requested
system.cpu.dtb.stage2_mmu.stage2_tlb.write_accesses            0                       # DTB write accesses
system.cpu.dtb.stage2_mmu.stage2_tlb.write_hits            0                       # DTB write hits
system.cpu.dtb.stage2_mmu.stage2_tlb.write_misses            0                       # DTB write misses
system.cpu.dtb.walker.walkRequestOrigin_Requested::Data            0                       # Table walker requests started/completed, data/inst
system.cpu.dtb.walker.walkRequestOrigin_Requested::Inst            0                       # Table walker requests started/completed, data/inst
system.cpu.dtb.walker.walkRequestOrigin_Requested::total            0                       # Table walker requests started/completed, data/inst
system.cpu.dtb.walker.walkRequestOrigin_Completed::Data            0                       # Table walker requests started/completed, data/inst
system.cpu.dtb.walker.walkRequestOrigin_Completed::Inst            0                       # Table walker requests started/completed, data/inst
system.cpu.dtb.walker.walkRequestOrigin_Completed::total            0                       # Table walker requests started/completed, data/inst
system.cpu.dtb.walker.walkRequestOrigin::total            0                       # Table walker requests started/completed, data/inst
system.cpu.dtb.walker.walks                         0                       # Table walker walks requested
system.cpu.dtb.write_accesses                       0                       # DTB write accesses
system.cpu.dtb.write_hits                           0                       # DTB write hits
system.cpu.dtb.write_misses                         0                       # DTB write misses
system.cpu.fetch.Branches                     6272563                       # Number of branches that fetch encountered
system.cpu.fetch.CacheLines                  29086076                       # Number of cache lines fetched
system.cpu.fetch.Cycles                      63852260                       # Number of cycles fetch has run and was not squashing or blocked
system.cpu.fetch.IcacheSquashes                  7990                       # Number of outstanding Icache misses that were squashed
system.cpu.fetch.Insts                      102785771                       # Number of instructions fetch has processed
system.cpu.fetch.MiscStallCycles                   16                       # Number of cycles fetch has spent waiting on interrupts, or bad addresses, or out of MSHRs
system.cpu.fetch.PendingTrapStallCycles           215                       # Number of stall cycles due to pending traps
system.cpu.fetch.SquashCycles                  370642                       # Number of cycles fetch has spent squashing
system.cpu.fetch.branchRate                  0.067196                       # Number of branch fetches per cycle
system.cpu.fetch.icacheStallCycles           29272658                       # Number of cycles fetch is stalled on an Icache miss
system.cpu.fetch.predictedBranches            4781361                       # Number of branches that fetch has predicted taken
system.cpu.fetch.rate                        1.101105                       # Number of inst fetches per cycle
system.cpu.fetch.rateDist::samples           93310470                       # Number of instructions fetched each cycle (Total)
system.cpu.fetch.rateDist::mean              1.101579                       # Number of instructions fetched each cycle (Total)
system.cpu.fetch.rateDist::stdev             1.228659                       # Number of instructions fetched each cycle (Total)
system.cpu.fetch.rateDist::underflows               0      0.00%      0.00% # Number of instructions fetched each cycle (Total)
system.cpu.fetch.rateDist::0                 42373278     45.41%     45.41% # Number of instructions fetched each cycle (Total)
system.cpu.fetch.rateDist::1                 22885286     24.53%     69.94% # Number of instructions fetched each cycle (Total)
system.cpu.fetch.rateDist::2                  4252137      4.56%     74.49% # Number of instructions fetched each cycle (Total)
system.cpu.fetch.rateDist::3                 23799769     25.51%    100.00% # Number of instructions fetched each cycle (Total)
system.cpu.fetch.rateDist::overflows                0      0.00%    100.00% # Number of instructions fetched each cycle (Total)
system.cpu.fetch.rateDist::min_value                0                       # Number of instructions fetched each cycle (Total)
system.cpu.fetch.rateDist::max_value                3                       # Number of instructions fetched each cycle (Total)
system.cpu.fetch.rateDist::total             93310470                       # Number of instructions fetched each cycle (Total)
system.cpu.idleCycles                           37361                       # Total number of cycles that the CPU has spent unscheduled due to idling
system.cpu.iew.branchMispredicts               179246                       # Number of branch mispredicts detected at execute
system.cpu.iew.exec_branches                  5918738                       # Number of branches executed
system.cpu.iew.exec_nop                             2                       # number of nop insts executed
system.cpu.iew.exec_rate                     1.073545                       # Inst execution rate
system.cpu.iew.exec_refs                     38791213                       # number of memory reference insts executed
system.cpu.iew.exec_stores                   18112962                       # Number of stores executed
system.cpu.iew.exec_swp                             0                       # number of swp insts executed
system.cpu.iew.iewBlockCycles                    7056                       # Number of cycles IEW is blocking
system.cpu.iew.iewDispLoadInsts              20705387                       # Number of dispatched load instructions
system.cpu.iew.iewDispNonSpecInsts                 32                       # Number of dispatched non-speculative instructions
system.cpu.iew.iewDispSquashedInsts                 0                       # Number of squashed instructions skipped by dispatch
system.cpu.iew.iewDispStoreInsts             18135475                       # Number of dispatched store instructions
system.cpu.iew.iewDispatchedInsts           100466279                       # Number of instructions dispatched to IQ
system.cpu.iew.iewExecLoadInsts              20678251                       # Number of load instructions executed
system.cpu.iew.iewExecSquashedInsts            182021                       # Number of squashed instructions skipped in execute
system.cpu.iew.iewExecutedInsts             100213099                       # Number of executed instructions
system.cpu.iew.iewIQFullEvents                      0                       # Number of times the IQ has become full, causing a stall
system.cpu.iew.iewIdleCycles                        0                       # Number of cycles IEW is idle
system.cpu.iew.iewLSQFullEvents                   273                       # Number of times the LSQ has become full, causing a stall
system.cpu.iew.iewSquashCycles                 185059                       # Number of cycles IEW is squashing
system.cpu.iew.iewUnblockCycles                   273                       # Number of cycles IEW is unblocking
system.cpu.iew.lsq.thread0.blockedLoads             0                       # Number of blocked loads due to partial load-store forwarding
system.cpu.iew.lsq.thread0.cacheBlocked             6                       # Number of times an access to memory failed due to the cache being blocked
system.cpu.iew.lsq.thread0.forwLoads          5670513                       # Number of loads that had data forwarded from stores
system.cpu.iew.lsq.thread0.ignoredResponses          197                       # Number of memory responses ignored because the instruction is squashed
system.cpu.iew.lsq.thread0.invAddrLoads             0                       # Number of loads ignored due to an invalid address
system.cpu.iew.lsq.thread0.invAddrSwpfs             0                       # Number of software prefetches ignored due to an invalid address
system.cpu.iew.lsq.thread0.memOrderViolation         6142                       # Number of memory ordering violations
system.cpu.iew.lsq.thread0.rescheduledLoads            6                       # Number of loads that were rescheduled
system.cpu.iew.lsq.thread0.squashedLoads        45946                       # Number of loads squashed
system.cpu.iew.lsq.thread0.squashedStores        25279                       # Number of stores squashed
system.cpu.iew.memOrderViolationEvents           6142                       # Number of memory order violations
system.cpu.iew.predictedNotTakenIncorrect        15419                       # Number of branches that were predicted not taken incorrectly
system.cpu.iew.predictedTakenIncorrect         163827                       # Number of branches that were predicted taken incorrectly
system.cpu.iew.wb_consumers                 135362603                       # num instructions consuming a value
system.cpu.iew.wb_count                     100203709                       # cumulative count of insts written-back
system.cpu.iew.wb_fanout                     0.511763                       # average fanout of values written-back
system.cpu.iew.wb_producers                  69273573                       # num instructions producing a value
system.cpu.iew.wb_rate                       1.073444                       # insts written-back per cycle
system.cpu.iew.wb_sent                      100203890                       # cumulative count of insts sent to commit
system.cpu.int_regfile_reads                133379203                       # number of integer regfile reads
system.cpu.int_regfile_writes                58058911                       # number of integer regfile writes
system.cpu.ipc                               1.071262                       # IPC: Instructions Per Cycle
system.cpu.ipc_total                         1.071262                       # IPC: Total IPC of All Threads
system.cpu.iq.FU_type_0::No_OpClass                17      0.00%      0.00% # Type of FU issued
system.cpu.iq.FU_type_0::IntAlu              61582114     61.34%     61.34% # Type of FU issued
system.cpu.iq.FU_type_0::IntMult                   11      0.00%     61.34% # Type of FU issued
system.cpu.iq.FU_type_0::IntDiv                     0      0.00%     61.34% # Type of FU issued
system.cpu.iq.FU_type_0::FloatAdd                   0      0.00%     61.34% # Type of FU issued
system.cpu.iq.FU_type_0::FloatCmp                   0      0.00%     61.34% # Type of FU issued
system.cpu.iq.FU_type_0::FloatCvt                   0      0.00%     61.34% # Type of FU issued
system.cpu.iq.FU_type_0::FloatMult                  0      0.00%     61.34% # Type of FU issued
system.cpu.iq.FU_type_0::FloatMultAcc               0      0.00%     61.34% # Type of FU issued
system.cpu.iq.FU_type_0::FloatDiv                   0      0.00%     61.34% # Type of FU issued
system.cpu.iq.FU_type_0::FloatMisc                  0      0.00%     61.34% # Type of FU issued
system.cpu.iq.FU_type_0::FloatSqrt                  0      0.00%     61.34% # Type of FU issued
system.cpu.iq.FU_type_0::SimdAdd                    0      0.00%     61.34% # Type of FU issued
system.cpu.iq.FU_type_0::SimdAddAcc                 0      0.00%     61.34% # Type of FU issued
system.cpu.iq.FU_type_0::SimdAlu                    0      0.00%     61.34% # Type of FU issued
system.cpu.iq.FU_type_0::SimdCmp                    0      0.00%     61.34% # Type of FU issued
system.cpu.iq.FU_type_0::SimdCvt                    0      0.00%     61.34% # Type of FU issued
system.cpu.iq.FU_type_0::SimdMisc                   0      0.00%     61.34% # Type of FU issued
system.cpu.iq.FU_type_0::SimdMult                   0      0.00%     61.34% # Type of FU issued
system.cpu.iq.FU_type_0::SimdMultAcc                0      0.00%     61.34% # Type of FU issued
system.cpu.iq.FU_type_0::SimdShift                  0      0.00%     61.34% # Type of FU issued
system.cpu.iq.FU_type_0::SimdShiftAcc               0      0.00%     61.34% # Type of FU issued
system.cpu.iq.FU_type_0::SimdDiv                    0      0.00%     61.34% # Type of FU issued
system.cpu.iq.FU_type_0::SimdSqrt                   0      0.00%     61.34% # Type of FU issued
system.cpu.iq.FU_type_0::SimdFloatAdd               0      0.00%     61.34% # Type of FU issued
system.cpu.iq.FU_type_0::SimdFloatAlu               0      0.00%     61.34% # Type of FU issued
system.cpu.iq.FU_type_0::SimdFloatCmp               0      0.00%     61.34% # Type of FU issued
system.cpu.iq.FU_type_0::SimdFloatCvt               0      0.00%     61.34% # Type of FU issued
system.cpu.iq.FU_type_0::SimdFloatDiv               0      0.00%     61.34% # Type of FU issued
system.cpu.iq.FU_type_0::SimdFloatMisc              4      0.00%     61.34% # Type of FU issued
system.cpu.iq.FU_type_0::SimdFloatMult              0      0.00%     61.34% # Type of FU issued
system.cpu.iq.FU_type_0::SimdFloatMultAcc            0      0.00%     61.34% # Type of FU issued
system.cpu.iq.FU_type_0::SimdFloatSqrt              0      0.00%     61.34% # Type of FU issued
system.cpu.iq.FU_type_0::SimdReduceAdd              0      0.00%     61.34% # Type of FU issued
system.cpu.iq.FU_type_0::SimdReduceAlu              0      0.00%     61.34% # Type of FU issued
system.cpu.iq.FU_type_0::SimdReduceCmp              0      0.00%     61.34% # Type of FU issued
system.cpu.iq.FU_type_0::SimdFloatReduceAdd            0      0.00%     61.34% # Type of FU issued
system.cpu.iq.FU_type_0::SimdFloatReduceCmp            0      0.00%     61.34% # Type of FU issued
system.cpu.iq.FU_type_0::SimdAes                    0      0.00%     61.34% # Type of FU issued
system.cpu.iq.FU_type_0::SimdAesMix                 0      0.00%     61.34% # Type of FU issued
system.cpu.iq.FU_type_0::SimdSha1Hash               0      0.00%     61.34% # Type of FU issued
system.cpu.iq.FU_type_0::SimdSha1Hash2              0      0.00%     61.34% # Type of FU issued
system.cpu.iq.FU_type_0::SimdSha256Hash             0      0.00%     61.34% # Type of FU issued
system.cpu.iq.FU_type_0::SimdSha256Hash2            0      0.00%     61.34% # Type of FU issued
system.cpu.iq.FU_type_0::SimdShaSigma2              0      0.00%     61.34% # Type of FU issued
system.cpu.iq.FU_type_0::SimdShaSigma3              0      0.00%     61.34% # Type of FU issued
system.cpu.iq.FU_type_0::SimdPredAlu                0      0.00%     61.34% # Type of FU issued
system.cpu.iq.FU_type_0::MemRead             20696262     20.61%     81.95% # Type of FU issued
system.cpu.iq.FU_type_0::MemWrite            18116712     18.05%    100.00% # Type of FU issued
system.cpu.iq.FU_type_0::FloatMemRead               0      0.00%    100.00% # Type of FU issued
system.cpu.iq.FU_type_0::FloatMemWrite              0      0.00%    100.00% # Type of FU issued
system.cpu.iq.FU_type_0::IprAccess                  0      0.00%    100.00% # Type of FU issued
system.cpu.iq.FU_type_0::InstPrefetch               0      0.00%    100.00% # Type of FU issued
system.cpu.iq.FU_type_0::total              100395120                       # Type of FU issued
system.cpu.iq.fp_alu_accesses                       0                       # Number of floating point alu accesses
system.cpu.iq.fp_inst_queue_reads                   0                       # Number of floating instruction queue reads
system.cpu.iq.fp_inst_queue_wakeup_accesses            0                       # Number of floating instruction queue wakeup accesses
system.cpu.iq.fp_inst_queue_writes                  0                       # Number of floating instruction queue writes
system.cpu.iq.fu_busy_cnt                     2351850                       # FU busy when requested
system.cpu.iq.fu_busy_rate                   0.023426                       # FU busy rate (busy events/executed inst)
system.cpu.iq.fu_full::No_OpClass                   0      0.00%      0.00% # attempts to use FU when none available
system.cpu.iq.fu_full::IntAlu                 1417044     60.25%     60.25% # attempts to use FU when none available
system.cpu.iq.fu_full::IntMult                      0      0.00%     60.25% # attempts to use FU when none available
system.cpu.iq.fu_full::IntDiv                       0      0.00%     60.25% # attempts to use FU when none available
system.cpu.iq.fu_full::FloatAdd                     0      0.00%     60.25% # attempts to use FU when none available
system.cpu.iq.fu_full::FloatCmp                     0      0.00%     60.25% # attempts to use FU when none available
system.cpu.iq.fu_full::FloatCvt                     0      0.00%     60.25% # attempts to use FU when none available
system.cpu.iq.fu_full::FloatMult                    0      0.00%     60.25% # attempts to use FU when none available
system.cpu.iq.fu_full::FloatMultAcc                 0      0.00%     60.25% # attempts to use FU when none available
system.cpu.iq.fu_full::FloatDiv                     0      0.00%     60.25% # attempts to use FU when none available
system.cpu.iq.fu_full::FloatMisc                    0      0.00%     60.25% # attempts to use FU when none available
system.cpu.iq.fu_full::FloatSqrt                    0      0.00%     60.25% # attempts to use FU when none available
system.cpu.iq.fu_full::SimdAdd                      0      0.00%     60.25% # attempts to use FU when none available
system.cpu.iq.fu_full::SimdAddAcc                   0      0.00%     60.25% # attempts to use FU when none available
system.cpu.iq.fu_full::SimdAlu                      0      0.00%     60.25% # attempts to use FU when none available
system.cpu.iq.fu_full::SimdCmp                      0      0.00%     60.25% # attempts to use FU when none available
system.cpu.iq.fu_full::SimdCvt                      0      0.00%     60.25% # attempts to use FU when none available
system.cpu.iq.fu_full::SimdMisc                     0      0.00%     60.25% # attempts to use FU when none available
system.cpu.iq.fu_full::SimdMult                     0      0.00%     60.25% # attempts to use FU when none available
system.cpu.iq.fu_full::SimdMultAcc                  0      0.00%     60.25% # attempts to use FU when none available
system.cpu.iq.fu_full::SimdShift                    0      0.00%     60.25% # attempts to use FU when none available
system.cpu.iq.fu_full::SimdShiftAcc                 0      0.00%     60.25% # attempts to use FU when none available
system.cpu.iq.fu_full::SimdDiv                      0      0.00%     60.25% # attempts to use FU when none available
system.cpu.iq.fu_full::SimdSqrt                     0      0.00%     60.25% # attempts to use FU when none available
system.cpu.iq.fu_full::SimdFloatAdd                 0      0.00%     60.25% # attempts to use FU when none available
system.cpu.iq.fu_full::SimdFloatAlu                 0      0.00%     60.25% # attempts to use FU when none available
system.cpu.iq.fu_full::SimdFloatCmp                 0      0.00%     60.25% # attempts to use FU when none available
system.cpu.iq.fu_full::SimdFloatCvt                 0      0.00%     60.25% # attempts to use FU when none available
system.cpu.iq.fu_full::SimdFloatDiv                 0      0.00%     60.25% # attempts to use FU when none available
system.cpu.iq.fu_full::SimdFloatMisc                0      0.00%     60.25% # attempts to use FU when none available
system.cpu.iq.fu_full::SimdFloatMult                0      0.00%     60.25% # attempts to use FU when none available
system.cpu.iq.fu_full::SimdFloatMultAcc             0      0.00%     60.25% # attempts to use FU when none available
system.cpu.iq.fu_full::SimdFloatSqrt                0      0.00%     60.25% # attempts to use FU when none available
system.cpu.iq.fu_full::SimdReduceAdd                0      0.00%     60.25% # attempts to use FU when none available
system.cpu.iq.fu_full::SimdReduceAlu                0      0.00%     60.25% # attempts to use FU when none available
system.cpu.iq.fu_full::SimdReduceCmp                0      0.00%     60.25% # attempts to use FU when none available
system.cpu.iq.fu_full::SimdFloatReduceAdd            0      0.00%     60.25% # attempts to use FU when none available
system.cpu.iq.fu_full::SimdFloatReduceCmp            0      0.00%     60.25% # attempts to use FU when none available
system.cpu.iq.fu_full::SimdAes                      0      0.00%     60.25% # attempts to use FU when none available
system.cpu.iq.fu_full::SimdAesMix                   0      0.00%     60.25% # attempts to use FU when none available
system.cpu.iq.fu_full::SimdSha1Hash                 0      0.00%     60.25% # attempts to use FU when none available
system.cpu.iq.fu_full::SimdSha1Hash2                0      0.00%     60.25% # attempts to use FU when none available
system.cpu.iq.fu_full::SimdSha256Hash               0      0.00%     60.25% # attempts to use FU when none available
system.cpu.iq.fu_full::SimdSha256Hash2              0      0.00%     60.25% # attempts to use FU when none available
system.cpu.iq.fu_full::SimdShaSigma2                0      0.00%     60.25% # attempts to use FU when none available
system.cpu.iq.fu_full::SimdShaSigma3                0      0.00%     60.25% # attempts to use FU when none available
system.cpu.iq.fu_full::SimdPredAlu                  0      0.00%     60.25% # attempts to use FU when none available
system.cpu.iq.fu_full::MemRead                 575202     24.46%     84.71% # attempts to use FU when none available
system.cpu.iq.fu_full::MemWrite                359604     15.29%    100.00% # attempts to use FU when none available
system.cpu.iq.fu_full::FloatMemRead                 0      0.00%    100.00% # attempts to use FU when none available
system.cpu.iq.fu_full::FloatMemWrite                0      0.00%    100.00% # attempts to use FU when none available
system.cpu.iq.fu_full::IprAccess                    0      0.00%    100.00% # attempts to use FU when none available
system.cpu.iq.fu_full::InstPrefetch                 0      0.00%    100.00% # attempts to use FU when none available
system.cpu.iq.int_alu_accesses              102746953                       # Number of integer alu accesses
system.cpu.iq.int_inst_queue_reads          296453565                       # Number of integer instruction queue reads
system.cpu.iq.int_inst_queue_wakeup_accesses    100203709                       # Number of integer instruction queue wakeup accesses
system.cpu.iq.int_inst_queue_writes         100936654                       # Number of integer instruction queue writes
system.cpu.iq.iqInstsAdded                  100466225                       # Number of instructions added to the IQ (excludes non-spec)
system.cpu.iq.iqInstsIssued                 100395120                       # Number of instructions issued
system.cpu.iq.iqNonSpecInstsAdded                  52                       # Number of non-speculative instructions added to the IQ
system.cpu.iq.iqSquashedInstsExamined          464235                       # Number of squashed instructions iterated over during squash; mainly for profiling
system.cpu.iq.iqSquashedInstsIssued              1005                       # Number of squashed instructions issued
system.cpu.iq.iqSquashedNonSpecRemoved              2                       # Number of squashed non-spec instructions that were removed
system.cpu.iq.iqSquashedOperandsExamined       512575                       # Number of squashed operands that are examined and possibly removed from graph
system.cpu.iq.issued_per_cycle::samples      93310470                       # Number of insts issued each cycle
system.cpu.iq.issued_per_cycle::mean         1.075926                       # Number of insts issued each cycle
system.cpu.iq.issued_per_cycle::stdev        0.805551                       # Number of insts issued each cycle
system.cpu.iq.issued_per_cycle::underflows            0      0.00%      0.00% # Number of insts issued each cycle
system.cpu.iq.issued_per_cycle::0            23413552     25.09%     25.09% # Number of insts issued each cycle
system.cpu.iq.issued_per_cycle::1            42926243     46.00%     71.10% # Number of insts issued each cycle
system.cpu.iq.issued_per_cycle::2            23503851     25.19%     96.28% # Number of insts issued each cycle
system.cpu.iq.issued_per_cycle::3             3406121      3.65%     99.93% # Number of insts issued each cycle
system.cpu.iq.issued_per_cycle::4               60703      0.07%    100.00% # Number of insts issued each cycle
system.cpu.iq.issued_per_cycle::5                   0      0.00%    100.00% # Number of insts issued each cycle
system.cpu.iq.issued_per_cycle::6                   0      0.00%    100.00% # Number of insts issued each cycle
system.cpu.iq.issued_per_cycle::7                   0      0.00%    100.00% # Number of insts issued each cycle
system.cpu.iq.issued_per_cycle::8                   0      0.00%    100.00% # Number of insts issued each cycle
system.cpu.iq.issued_per_cycle::overflows            0      0.00%    100.00% # Number of insts issued each cycle
system.cpu.iq.issued_per_cycle::min_value            0                       # Number of insts issued each cycle
system.cpu.iq.issued_per_cycle::max_value            4                       # Number of insts issued each cycle
system.cpu.iq.issued_per_cycle::total        93310470                       # Number of insts issued each cycle
system.cpu.iq.rate                           1.075495                       # Inst issue rate
system.cpu.iq.vec_alu_accesses                      0                       # Number of vector alu accesses
system.cpu.iq.vec_inst_queue_reads                  0                       # Number of vector instruction queue reads
system.cpu.iq.vec_inst_queue_wakeup_accesses            0                       # Number of vector instruction queue wakeup accesses
system.cpu.iq.vec_inst_queue_writes                 0                       # Number of vector instruction queue writes
system.cpu.itb.accesses                             0                       # DTB accesses
system.cpu.itb.align_faults                         0                       # Number of TLB faults due to alignment restrictions
system.cpu.itb.domain_faults                        0                       # Number of TLB faults due to domain restrictions
system.cpu.itb.flush_entries                        0                       # Number of entries that have been flushed from TLB
system.cpu.itb.flush_tlb                            0                       # Number of times complete TLB was flushed
system.cpu.itb.flush_tlb_asid                       0                       # Number of times TLB was flushed by ASID
system.cpu.itb.flush_tlb_mva                        0                       # Number of times TLB was flushed by MVA
system.cpu.itb.flush_tlb_mva_asid                   0                       # Number of times TLB was flushed by MVA & ASID
system.cpu.itb.hits                                 0                       # DTB hits
system.cpu.itb.inst_accesses                        0                       # ITB inst accesses
system.cpu.itb.inst_hits                            0                       # ITB inst hits
system.cpu.itb.inst_misses                          0                       # ITB inst misses
system.cpu.itb.misses                               0                       # DTB misses
system.cpu.itb.perms_faults                         0                       # Number of TLB faults due to permissions restrictions
system.cpu.itb.prefetch_faults                      0                       # Number of TLB faults due to prefetch
system.cpu.itb.read_accesses                        0                       # DTB read accesses
system.cpu.itb.read_hits                            0                       # DTB read hits
system.cpu.itb.read_misses                          0                       # DTB read misses
system.cpu.itb.stage2_mmu.stage2_tlb.accesses            0                       # DTB accesses
system.cpu.itb.stage2_mmu.stage2_tlb.align_faults            0                       # Number of TLB faults due to alignment restrictions
system.cpu.itb.stage2_mmu.stage2_tlb.domain_faults            0                       # Number of TLB faults due to domain restrictions
system.cpu.itb.stage2_mmu.stage2_tlb.flush_entries            0                       # Number of entries that have been flushed from TLB
system.cpu.itb.stage2_mmu.stage2_tlb.flush_tlb            0                       # Number of times complete TLB was flushed
system.cpu.itb.stage2_mmu.stage2_tlb.flush_tlb_asid            0                       # Number of times TLB was flushed by ASID
system.cpu.itb.stage2_mmu.stage2_tlb.flush_tlb_mva            0                       # Number of times TLB was flushed by MVA
system.cpu.itb.stage2_mmu.stage2_tlb.flush_tlb_mva_asid            0                       # Number of times TLB was flushed by MVA & ASID
system.cpu.itb.stage2_mmu.stage2_tlb.hits            0                       # DTB hits
system.cpu.itb.stage2_mmu.stage2_tlb.inst_accesses            0                       # ITB inst accesses
system.cpu.itb.stage2_mmu.stage2_tlb.inst_hits            0                       # ITB inst hits
system.cpu.itb.stage2_mmu.stage2_tlb.inst_misses            0                       # ITB inst misses
system.cpu.itb.stage2_mmu.stage2_tlb.misses            0                       # DTB misses
system.cpu.itb.stage2_mmu.stage2_tlb.perms_faults            0                       # Number of TLB faults due to permissions restrictions
system.cpu.itb.stage2_mmu.stage2_tlb.prefetch_faults            0                       # Number of TLB faults due to prefetch
system.cpu.itb.stage2_mmu.stage2_tlb.read_accesses            0                       # DTB read accesses
system.cpu.itb.stage2_mmu.stage2_tlb.read_hits            0                       # DTB read hits
system.cpu.itb.stage2_mmu.stage2_tlb.read_misses            0                       # DTB read misses
system.cpu.itb.stage2_mmu.stage2_tlb.walker.walkRequestOrigin_Requested::Data            0                       # Table walker requests started/completed, data/inst
system.cpu.itb.stage2_mmu.stage2_tlb.walker.walkRequestOrigin_Requested::Inst            0                       # Table walker requests started/completed, data/inst
system.cpu.itb.stage2_mmu.stage2_tlb.walker.walkRequestOrigin_Requested::total            0                       # Table walker requests started/completed, data/inst
system.cpu.itb.stage2_mmu.stage2_tlb.walker.walkRequestOrigin_Completed::Data            0                       # Table walker requests started/completed, data/inst
system.cpu.itb.stage2_mmu.stage2_tlb.walker.walkRequestOrigin_Completed::Inst            0                       # Table walker requests started/completed, data/inst
system.cpu.itb.stage2_mmu.stage2_tlb.walker.walkRequestOrigin_Completed::total            0                       # Table walker requests started/completed, data/inst
system.cpu.itb.stage2_mmu.stage2_tlb.walker.walkRequestOrigin::total            0                       # Table walker requests started/completed, data/inst
system.cpu.itb.stage2_mmu.stage2_tlb.walker.walks            0                       # Table walker walks requested
system.cpu.itb.stage2_mmu.stage2_tlb.write_accesses            0                       # DTB write accesses
system.cpu.itb.stage2_mmu.stage2_tlb.write_hits            0                       # DTB write hits
system.cpu.itb.stage2_mmu.stage2_tlb.write_misses            0                       # DTB write misses
system.cpu.itb.walker.walkRequestOrigin_Requested::Data            0                       # Table walker requests started/completed, data/inst
system.cpu.itb.walker.walkRequestOrigin_Requested::Inst            0                       # Table walker requests started/completed, data/inst
system.cpu.itb.walker.walkRequestOrigin_Requested::total            0                       # Table walker requests started/completed, data/inst
system.cpu.itb.walker.walkRequestOrigin_Completed::Data            0                       # Table walker requests started/completed, data/inst
system.cpu.itb.walker.walkRequestOrigin_Completed::Inst            0                       # Table walker requests started/completed, data/inst
system.cpu.itb.walker.walkRequestOrigin_Completed::total            0                       # Table walker requests started/completed, data/inst
system.cpu.itb.walker.walkRequestOrigin::total            0                       # Table walker requests started/completed, data/inst
system.cpu.itb.walker.walks                         0                       # Table walker walks requested
system.cpu.itb.write_accesses                       0                       # DTB write accesses
system.cpu.itb.write_hits                           0                       # DTB write hits
system.cpu.itb.write_misses                         0                       # DTB write misses
system.cpu.memDep0.conflictingLoads          10310663                       # Number of conflicting loads.
system.cpu.memDep0.conflictingStores          2606905                       # Number of conflicting stores.
system.cpu.memDep0.insertedLoads             20705387                       # Number of loads inserted to the mem dependence unit.
system.cpu.memDep0.insertedStores            18135475                       # Number of stores inserted to the mem dependence unit.
system.cpu.misc_regfile_reads                36359058                       # number of misc regfile reads
system.cpu.misc_regfile_writes                     78                       # number of misc regfile writes
system.cpu.numCycles                         93347831                       # number of cpu cycles simulated
system.cpu.numWorkItemsCompleted                    0                       # number of work items this cpu completed
system.cpu.numWorkItemsStarted                      0                       # number of work items this cpu started
system.cpu.rename.BlockCycles                14911531                       # Number of cycles rename is blocking
system.cpu.rename.CommittedMaps             100127202                       # Number of HB maps that are committed
system.cpu.rename.IdleCycles                 24212680                       # Number of cycles rename is idle
system.cpu.rename.LQFullEvents                     10                       # Number of times rename has blocked due to LQ full
system.cpu.rename.ROBFullEvents              14721495                       # Number of times rename has blocked due to ROB full
system.cpu.rename.RenameLookups             486047128                       # Number of register rename lookups that rename has made
system.cpu.rename.RenamedInsts              100913173                       # Number of instructions processed by rename
system.cpu.rename.RenamedOperands           101040012                       # Number of destination operands rename has renamed
system.cpu.rename.RunCycles                  37736567                       # Number of cycles rename is running
system.cpu.rename.SQFullEvents                   4453                       # Number of times rename has blocked due to SQ full
system.cpu.rename.SquashCycles                 185059                       # Number of cycles rename is squashing
system.cpu.rename.SquashedInsts                242806                       # Number of squashed instructions processed by rename
system.cpu.rename.UnblockCycles              16262844                       # Number of cycles rename is unblocking
system.cpu.rename.UndoneMaps                   912785                       # Number of HB maps that are undone due to squashing
system.cpu.rename.int_rename_lookups        144327789                       # Number of integer rename lookups
system.cpu.rename.serializeStallCycles           1789                       # count of cycles rename stalled for serializing inst
system.cpu.rename.serializingInsts                 36                       # count of serializing insts renamed
system.cpu.rename.skidInsts                  17250827                       # count of insts added to the skid buffer
system.cpu.rename.tempSerializingInsts             32                       # count of temporary serializing insts renamed
system.cpu.rename.vec_rename_lookups               32                       # Number of vector rename lookups
system.cpu.rob.rob_reads                    190193930                       # The number of ROB reads
system.cpu.rob.rob_writes                   201024895                       # The number of ROB writes
system.cpu.timesIdled                             380                       # Number of times that the entire CPU went into an idle state and unscheduled itself
system.cpu.vec_regfile_reads                       32                       # number of vector regfile reads
system.cpu.workload.numSyscalls                    10                       # Number of system calls
system.membus.snoop_filter.hit_multi_requests            0                       # Number of requests hitting in the snoop filter with multiple (>1) holders of the requested data.
system.membus.snoop_filter.hit_multi_snoops            0                       # Number of snoops hitting in the snoop filter with multiple (>1) holders of the requested data.
system.membus.snoop_filter.hit_single_requests            0                       # Number of requests hitting in the snoop filter with a single holder of the requested data.
system.membus.snoop_filter.hit_single_snoops            0                       # Number of snoops hitting in the snoop filter with a single holder of the requested data.
system.membus.snoop_filter.tot_requests           700                       # Total number of requests made to the snoop filter.
system.membus.snoop_filter.tot_snoops               0                       # Total number of snoops made to the snoop filter.
system.tol2bus.snoop_filter.hit_multi_requests            8                       # Number of requests hitting in the snoop filter with multiple (>1) holders of the requested data.
system.tol2bus.snoop_filter.hit_multi_snoops            0                       # Number of snoops hitting in the snoop filter with multiple (>1) holders of the requested data.
system.tol2bus.snoop_filter.hit_single_requests           84                       # Number of requests hitting in the snoop filter with a single holder of the requested data.
system.tol2bus.snoop_filter.hit_single_snoops            0                       # Number of snoops hitting in the snoop filter with a single holder of the requested data.
system.tol2bus.snoop_filter.tot_requests          793                       # Total number of requests made to the snoop filter.
system.tol2bus.snoop_filter.tot_snoops              0                       # Total number of snoops made to the snoop filter.
system.membus.pwrStateResidencyTicks::UNDEFINED  58342393750                       # Cumulative time (in ticks) in various power states
system.membus.trans_dist::ReadResp                579                       # Transaction distribution
system.membus.trans_dist::ReadExReq               121                       # Transaction distribution
system.membus.trans_dist::ReadExResp              121                       # Transaction distribution
system.membus.trans_dist::ReadSharedReq           579                       # Transaction distribution
system.membus.pkt_count_system.l2.mem_side::system.mem_ctrls.port         1400                       # Packet count per connected master and slave (bytes)
system.membus.pkt_count::total                   1400                       # Packet count per connected master and slave (bytes)
system.membus.pkt_size_system.l2.mem_side::system.mem_ctrls.port        44800                       # Cumulative packet size per connected master and slave (bytes)
system.membus.pkt_size::total                   44800                       # Cumulative packet size per connected master and slave (bytes)
system.membus.snoops                                0                       # Total snoops (count)
system.membus.snoopTraffic                          0                       # Total snoop traffic (bytes)
system.membus.snoop_fanout::samples               700                       # Request fanout histogram
system.membus.snoop_fanout::mean                    0                       # Request fanout histogram
system.membus.snoop_fanout::stdev                   0                       # Request fanout histogram
system.membus.snoop_fanout::underflows              0      0.00%      0.00% # Request fanout histogram
system.membus.snoop_fanout::0                     700    100.00%    100.00% # Request fanout histogram
system.membus.snoop_fanout::1                       0      0.00%    100.00% # Request fanout histogram
system.membus.snoop_fanout::overflows               0      0.00%    100.00% # Request fanout histogram
system.membus.snoop_fanout::min_value               0                       # Request fanout histogram
system.membus.snoop_fanout::max_value               0                       # Request fanout histogram
system.membus.snoop_fanout::total                 700                       # Request fanout histogram
system.membus.respLayer1.occupancy            3727125                       # Layer occupancy (ticks)
system.membus.respLayer1.utilization              0.0                       # Layer utilization (%)
system.membus.reqLayer0.occupancy              997875                       # Layer occupancy (ticks)
system.membus.reqLayer0.utilization               0.0                       # Layer utilization (%)
system.tol2bus.pwrStateResidencyTicks::UNDEFINED  58342393750                       # Cumulative time (in ticks) in various power states
system.tol2bus.trans_dist::ReadResp               612                       # Transaction distribution
system.tol2bus.trans_dist::WritebackClean           57                       # Transaction distribution
system.tol2bus.trans_dist::CleanEvict               3                       # Transaction distribution
system.tol2bus.trans_dist::ReadExReq              121                       # Transaction distribution
system.tol2bus.trans_dist::ReadExResp             121                       # Transaction distribution
system.tol2bus.trans_dist::ReadCleanReq           480                       # Transaction distribution
system.tol2bus.trans_dist::ReadSharedReq          132                       # Transaction distribution
system.tol2bus.pkt_count_system.cpu.icache.mem_side::system.l2.cpu_side         1017                       # Packet count per connected master and slave (bytes)
system.tol2bus.pkt_count_system.cpu.dcache.mem_side::system.l2.cpu_side          509                       # Packet count per connected master and slave (bytes)
system.tol2bus.pkt_count::total                  1526                       # Packet count per connected master and slave (bytes)
system.tol2bus.pkt_size_system.cpu.icache.mem_side::system.l2.cpu_side        34368                       # Cumulative packet size per connected master and slave (bytes)
system.tol2bus.pkt_size_system.cpu.dcache.mem_side::system.l2.cpu_side        16192                       # Cumulative packet size per connected master and slave (bytes)
system.tol2bus.pkt_size::total                  50560                       # Cumulative packet size per connected master and slave (bytes)
system.tol2bus.snoops                               0                       # Total snoops (count)
system.tol2bus.snoopTraffic                         0                       # Total snoop traffic (bytes)
system.tol2bus.snoop_fanout::samples              733                       # Request fanout histogram
system.tol2bus.snoop_fanout::mean            0.043656                       # Request fanout histogram
system.tol2bus.snoop_fanout::stdev           0.204469                       # Request fanout histogram
system.tol2bus.snoop_fanout::underflows             0      0.00%      0.00% # Request fanout histogram
system.tol2bus.snoop_fanout::0                    701     95.63%     95.63% # Request fanout histogram
system.tol2bus.snoop_fanout::1                     32      4.37%    100.00% # Request fanout histogram
system.tol2bus.snoop_fanout::2                      0      0.00%    100.00% # Request fanout histogram
system.tol2bus.snoop_fanout::overflows              0      0.00%    100.00% # Request fanout histogram
system.tol2bus.snoop_fanout::min_value              0                       # Request fanout histogram
system.tol2bus.snoop_fanout::max_value              1                       # Request fanout histogram
system.tol2bus.snoop_fanout::total                733                       # Request fanout histogram
system.tol2bus.reqLayer0.occupancy             566875                       # Layer occupancy (ticks)
system.tol2bus.reqLayer0.utilization              0.0                       # Layer utilization (%)
system.tol2bus.respLayer1.occupancy            480615                       # Layer occupancy (ticks)
system.tol2bus.respLayer1.utilization             0.0                       # Layer utilization (%)
system.tol2bus.respLayer0.occupancy            900000                       # Layer occupancy (ticks)
system.tol2bus.respLayer0.utilization             0.0                       # Layer utilization (%)
system.voltage_domain.voltage                       1                       # Voltage in Volts
system.clk_domain.clock                          1000                       # Clock period in ticks
system.l2.pwrStateResidencyTicks::UNDEFINED  58342393750                       # Cumulative time (in ticks) in various power states
system.l2.demand_hits::.cpu.inst                   10                       # number of demand (read+write) hits
system.l2.demand_hits::.cpu.data                   13                       # number of demand (read+write) hits
system.l2.demand_hits::total                       23                       # number of demand (read+write) hits
system.l2.overall_hits::.cpu.inst                  10                       # number of overall hits
system.l2.overall_hits::.cpu.data                  13                       # number of overall hits
system.l2.overall_hits::total                      23                       # number of overall hits
system.l2.demand_misses::.cpu.inst                470                       # number of demand (read+write) misses
system.l2.demand_misses::.cpu.data                240                       # number of demand (read+write) misses
system.l2.demand_misses::total                    710                       # number of demand (read+write) misses
system.l2.overall_misses::.cpu.inst               470                       # number of overall misses
system.l2.overall_misses::.cpu.data               240                       # number of overall misses
system.l2.overall_misses::total                   710                       # number of overall misses
system.l2.demand_miss_latency::.cpu.inst     38758125                       # number of demand (read+write) miss cycles
system.l2.demand_miss_latency::.cpu.data     22166875                       # number of demand (read+write) miss cycles
system.l2.demand_miss_latency::total         60925000                       # number of demand (read+write) miss cycles
system.l2.overall_miss_latency::.cpu.inst     38758125                       # number of overall miss cycles
system.l2.overall_miss_latency::.cpu.data     22166875                       # number of overall miss cycles
system.l2.overall_miss_latency::total        60925000                       # number of overall miss cycles
system.l2.demand_accesses::.cpu.inst              480                       # number of demand (read+write) accesses
system.l2.demand_accesses::.cpu.data              253                       # number of demand (read+write) accesses
system.l2.demand_accesses::total                  733                       # number of demand (read+write) accesses
system.l2.overall_accesses::.cpu.inst             480                       # number of overall (read+write) accesses
system.l2.overall_accesses::.cpu.data             253                       # number of overall (read+write) accesses
system.l2.overall_accesses::total                 733                       # number of overall (read+write) accesses
system.l2.demand_miss_rate::.cpu.inst        0.979167                       # miss rate for demand accesses
system.l2.demand_miss_rate::.cpu.data        0.948617                       # miss rate for demand accesses
system.l2.demand_miss_rate::total            0.968622                       # miss rate for demand accesses
system.l2.overall_miss_rate::.cpu.inst       0.979167                       # miss rate for overall accesses
system.l2.overall_miss_rate::.cpu.data       0.948617                       # miss rate for overall accesses
system.l2.overall_miss_rate::total           0.968622                       # miss rate for overall accesses
system.l2.demand_avg_miss_latency::.cpu.inst 82464.095745                       # average overall miss latency
system.l2.demand_avg_miss_latency::.cpu.data 92361.979167                       # average overall miss latency
system.l2.demand_avg_miss_latency::total 85809.859155                       # average overall miss latency
system.l2.overall_avg_miss_latency::.cpu.inst 82464.095745                       # average overall miss latency
system.l2.overall_avg_miss_latency::.cpu.data 92361.979167                       # average overall miss latency
system.l2.overall_avg_miss_latency::total 85809.859155                       # average overall miss latency
system.l2.blocked_cycles::no_mshrs                  0                       # number of cycles access was blocked
system.l2.blocked_cycles::no_targets                0                       # number of cycles access was blocked
system.l2.blocked::no_mshrs                         0                       # number of cycles access was blocked
system.l2.blocked::no_targets                       0                       # number of cycles access was blocked
system.l2.avg_blocked_cycles::no_mshrs            nan                       # average number of cycles each access was blocked
system.l2.avg_blocked_cycles::no_targets          nan                       # average number of cycles each access was blocked
system.l2.demand_mshr_hits::.cpu.data              10                       # number of demand (read+write) MSHR hits
system.l2.demand_mshr_hits::total                  10                       # number of demand (read+write) MSHR hits
system.l2.overall_mshr_hits::.cpu.data             10                       # number of overall MSHR hits
system.l2.overall_mshr_hits::total                 10                       # number of overall MSHR hits
system.l2.demand_mshr_misses::.cpu.inst           470                       # number of demand (read+write) MSHR misses
system.l2.demand_mshr_misses::.cpu.data           230                       # number of demand (read+write) MSHR misses
system.l2.demand_mshr_misses::total               700                       # number of demand (read+write) MSHR misses
system.l2.overall_mshr_misses::.cpu.inst          470                       # number of overall MSHR misses
system.l2.overall_mshr_misses::.cpu.data          230                       # number of overall MSHR misses
system.l2.overall_mshr_misses::total              700                       # number of overall MSHR misses
system.l2.demand_mshr_miss_latency::.cpu.inst     32759750                       # number of demand (read+write) MSHR miss cycles
system.l2.demand_mshr_miss_latency::.cpu.data     18472625                       # number of demand (read+write) MSHR miss cycles
system.l2.demand_mshr_miss_latency::total     51232375                       # number of demand (read+write) MSHR miss cycles
system.l2.overall_mshr_miss_latency::.cpu.inst     32759750                       # number of overall MSHR miss cycles
system.l2.overall_mshr_miss_latency::.cpu.data     18472625                       # number of overall MSHR miss cycles
system.l2.overall_mshr_miss_latency::total     51232375                       # number of overall MSHR miss cycles
system.l2.demand_mshr_miss_rate::.cpu.inst     0.979167                       # mshr miss rate for demand accesses
system.l2.demand_mshr_miss_rate::.cpu.data     0.909091                       # mshr miss rate for demand accesses
system.l2.demand_mshr_miss_rate::total       0.954980                       # mshr miss rate for demand accesses
system.l2.overall_mshr_miss_rate::.cpu.inst     0.979167                       # mshr miss rate for overall accesses
system.l2.overall_mshr_miss_rate::.cpu.data     0.909091                       # mshr miss rate for overall accesses
system.l2.overall_mshr_miss_rate::total      0.954980                       # mshr miss rate for overall accesses
system.l2.demand_avg_mshr_miss_latency::.cpu.inst 69701.595745                       # average overall mshr miss latency
system.l2.demand_avg_mshr_miss_latency::.cpu.data 80315.760870                       # average overall mshr miss latency
system.l2.demand_avg_mshr_miss_latency::total 73189.107143                       # average overall mshr miss latency
system.l2.overall_avg_mshr_miss_latency::.cpu.inst 69701.595745                       # average overall mshr miss latency
system.l2.overall_avg_mshr_miss_latency::.cpu.data 80315.760870                       # average overall mshr miss latency
system.l2.overall_avg_mshr_miss_latency::total 73189.107143                       # average overall mshr miss latency
system.l2.replacements                              0                       # number of replacements
system.l2.WritebackClean_hits::.writebacks           50                       # number of WritebackClean hits
system.l2.WritebackClean_hits::total               50                       # number of WritebackClean hits
system.l2.WritebackClean_accesses::.writebacks           50                       # number of WritebackClean accesses(hits+misses)
system.l2.WritebackClean_accesses::total           50                       # number of WritebackClean accesses(hits+misses)
system.l2.ReadExReq_misses::.cpu.data             121                       # number of ReadExReq misses
system.l2.ReadExReq_misses::total                 121                       # number of ReadExReq misses
system.l2.ReadExReq_miss_latency::.cpu.data     10700625                       # number of ReadExReq miss cycles
system.l2.ReadExReq_miss_latency::total      10700625                       # number of ReadExReq miss cycles
system.l2.ReadExReq_accesses::.cpu.data           121                       # number of ReadExReq accesses(hits+misses)
system.l2.ReadExReq_accesses::total               121                       # number of ReadExReq accesses(hits+misses)
system.l2.ReadExReq_miss_rate::.cpu.data            1                       # miss rate for ReadExReq accesses
system.l2.ReadExReq_miss_rate::total                1                       # miss rate for ReadExReq accesses
system.l2.ReadExReq_avg_miss_latency::.cpu.data 88434.917355                       # average ReadExReq miss latency
system.l2.ReadExReq_avg_miss_latency::total 88434.917355                       # average ReadExReq miss latency
system.l2.ReadExReq_mshr_misses::.cpu.data          121                       # number of ReadExReq MSHR misses
system.l2.ReadExReq_mshr_misses::total            121                       # number of ReadExReq MSHR misses
system.l2.ReadExReq_mshr_miss_latency::.cpu.data      9159000                       # number of ReadExReq MSHR miss cycles
system.l2.ReadExReq_mshr_miss_latency::total      9159000                       # number of ReadExReq MSHR miss cycles
system.l2.ReadExReq_mshr_miss_rate::.cpu.data            1                       # mshr miss rate for ReadExReq accesses
system.l2.ReadExReq_mshr_miss_rate::total            1                       # mshr miss rate for ReadExReq accesses
system.l2.ReadExReq_avg_mshr_miss_latency::.cpu.data 75694.214876                       # average ReadExReq mshr miss latency
system.l2.ReadExReq_avg_mshr_miss_latency::total 75694.214876                       # average ReadExReq mshr miss latency
system.l2.ReadCleanReq_hits::.cpu.inst             10                       # number of ReadCleanReq hits
system.l2.ReadCleanReq_hits::total                 10                       # number of ReadCleanReq hits
system.l2.ReadCleanReq_misses::.cpu.inst          470                       # number of ReadCleanReq misses
system.l2.ReadCleanReq_misses::total              470                       # number of ReadCleanReq misses
system.l2.ReadCleanReq_miss_latency::.cpu.inst     38758125                       # number of ReadCleanReq miss cycles
system.l2.ReadCleanReq_miss_latency::total     38758125                       # number of ReadCleanReq miss cycles
system.l2.ReadCleanReq_accesses::.cpu.inst          480                       # number of ReadCleanReq accesses(hits+misses)
system.l2.ReadCleanReq_accesses::total            480                       # number of ReadCleanReq accesses(hits+misses)
system.l2.ReadCleanReq_miss_rate::.cpu.inst     0.979167                       # miss rate for ReadCleanReq accesses
system.l2.ReadCleanReq_miss_rate::total      0.979167                       # miss rate for ReadCleanReq accesses
system.l2.ReadCleanReq_avg_miss_latency::.cpu.inst 82464.095745                       # average ReadCleanReq miss latency
system.l2.ReadCleanReq_avg_miss_latency::total 82464.095745                       # average ReadCleanReq miss latency
system.l2.ReadCleanReq_mshr_misses::.cpu.inst          470                       # number of ReadCleanReq MSHR misses
system.l2.ReadCleanReq_mshr_misses::total          470                       # number of ReadCleanReq MSHR misses
system.l2.ReadCleanReq_mshr_miss_latency::.cpu.inst     32759750                       # number of ReadCleanReq MSHR miss cycles
system.l2.ReadCleanReq_mshr_miss_latency::total     32759750                       # number of ReadCleanReq MSHR miss cycles
system.l2.ReadCleanReq_mshr_miss_rate::.cpu.inst     0.979167                       # mshr miss rate for ReadCleanReq accesses
system.l2.ReadCleanReq_mshr_miss_rate::total     0.979167                       # mshr miss rate for ReadCleanReq accesses
system.l2.ReadCleanReq_avg_mshr_miss_latency::.cpu.inst 69701.595745                       # average ReadCleanReq mshr miss latency
system.l2.ReadCleanReq_avg_mshr_miss_latency::total 69701.595745                       # average ReadCleanReq mshr miss latency
system.l2.ReadSharedReq_hits::.cpu.data            13                       # number of ReadSharedReq hits
system.l2.ReadSharedReq_hits::total                13                       # number of ReadSharedReq hits
system.l2.ReadSharedReq_misses::.cpu.data          119                       # number of ReadSharedReq misses
system.l2.ReadSharedReq_misses::total             119                       # number of ReadSharedReq misses
system.l2.ReadSharedReq_miss_latency::.cpu.data     11466250                       # number of ReadSharedReq miss cycles
system.l2.ReadSharedReq_miss_latency::total     11466250                       # number of ReadSharedReq miss cycles
system.l2.ReadSharedReq_accesses::.cpu.data          132                       # number of ReadSharedReq accesses(hits+misses)
system.l2.ReadSharedReq_accesses::total           132                       # number of ReadSharedReq accesses(hits+misses)
system.l2.ReadSharedReq_miss_rate::.cpu.data     0.901515                       # miss rate for ReadSharedReq accesses
system.l2.ReadSharedReq_miss_rate::total     0.901515                       # miss rate for ReadSharedReq accesses
system.l2.ReadSharedReq_avg_miss_latency::.cpu.data 96355.042017                       # average ReadSharedReq miss latency
[...]
system.cpu.icache.ReadReq_hits::total        29085475                       # number of ReadReq hits
system.cpu.icache.ReadReq_misses::.cpu.inst          601                       # number of ReadReq misses
system.cpu.icache.ReadReq_misses::total           601                       # number of ReadReq misses
system.cpu.icache.ReadReq_miss_latency::.cpu.inst     46622500                       # number of ReadReq miss cycles
system.cpu.icache.ReadReq_miss_latency::total     46622500                       # number of ReadReq miss cycles
system.cpu.icache.ReadReq_accesses::.cpu.inst     29086076                       # number of ReadReq accesses(hits+misses)
system.cpu.icache.ReadReq_accesses::total     29086076                       # number of ReadReq accesses(hits+misses)
system.cpu.icache.ReadReq_miss_rate::.cpu.inst     0.000021                       # miss rate for ReadReq accesses
system.cpu.icache.ReadReq_miss_rate::total     0.000021                       # miss rate for ReadReq accesses
system.cpu.icache.ReadReq_avg_miss_latency::.cpu.inst 77574.875208                       # average ReadReq miss latency
system.cpu.icache.ReadReq_avg_miss_latency::total 77574.875208                       # average ReadReq miss latency
system.cpu.icache.ReadReq_mshr_hits::.cpu.inst          121                       # number of ReadReq MSHR hits
system.cpu.icache.ReadReq_mshr_hits::total          121                       # number of ReadReq MSHR hits
system.cpu.icache.ReadReq_mshr_misses::.cpu.inst          480                       # number of ReadReq MSHR misses
system.cpu.icache.ReadReq_mshr_misses::total          480                       # number of ReadReq MSHR misses
system.cpu.icache.ReadReq_mshr_miss_latency::.cpu.inst     39805000                       # number of ReadReq MSHR miss cycles
system.cpu.icache.ReadReq_mshr_miss_latency::total     39805000                       # number of ReadReq MSHR miss cycles
system.cpu.icache.ReadReq_mshr_miss_rate::.cpu.inst     0.000017                       # mshr miss rate for ReadReq accesses
system.cpu.icache.ReadReq_mshr_miss_rate::total     0.000017                       # mshr miss rate for ReadReq accesses
system.cpu.icache.ReadReq_avg_mshr_miss_latency::.cpu.inst 82927.083333                       # average ReadReq mshr miss latency
system.cpu.icache.ReadReq_avg_mshr_miss_latency::total 82927.083333                       # average ReadReq mshr miss latency
system.cpu.icache.tags.pwrStateResidencyTicks::UNDEFINED  58342393750                       # Cumulative time (in ticks) in various power states
system.cpu.icache.tags.tagsinuse           422.774910                       # Cycle average of tags in use
system.cpu.icache.tags.total_refs            29085955                       # Total number of references to valid blocks.
system.cpu.icache.tags.sampled_refs               480                       # Sample count of references to valid blocks.
system.cpu.icache.tags.avg_refs          60595.739583                       # Average number of references to valid blocks.
system.cpu.icache.tags.warmup_cycle             91250                       # Cycle when the warmup percentage was hit.
system.cpu.icache.tags.occ_blocks::.cpu.inst   422.774910                       # Average occupied blocks per requestor
system.cpu.icache.tags.occ_percent::.cpu.inst     0.825732                       # Average percentage of cache occupancy
system.cpu.icache.tags.occ_percent::total     0.825732                       # Average percentage of cache occupancy
system.cpu.icache.tags.occ_task_id_blocks::1024          423                       # Occupied blocks per task id
system.cpu.icache.tags.age_task_id_blocks_1024::4          423                       # Occupied blocks per task id
system.cpu.icache.tags.occ_task_id_percent::1024     0.826172                       # Percentage of cache occupancy per task id
system.cpu.icache.tags.tag_accesses         116344784                       # Number of tag accesses
system.cpu.icache.tags.data_accesses        116344784                       # Number of data accesses
system.cpu.dtb.walker.pwrStateResidencyTicks::UNDEFINED  58342393750                       # Cumulative time (in ticks) in various power states
system.cpu.dtb.stage2_mmu.stage2_tlb.walker.pwrStateResidencyTicks::UNDEFINED  58342393750                       # Cumulative time (in ticks) in various power states
system.cpu.itb.walker.pwrStateResidencyTicks::UNDEFINED  58342393750                       # Cumulative time (in ticks) in various power states
system.cpu.itb.stage2_mmu.stage2_tlb.walker.pwrStateResidencyTicks::UNDEFINED  58342393750                       # Cumulative time (in ticks) in various power states
system.cpu.dcache.pwrStateResidencyTicks::UNDEFINED  58342393750                       # Cumulative time (in ticks) in various power states
system.cpu.dcache.demand_hits::.cpu.data     20979651                       # number of demand (read+write) hits
system.cpu.dcache.demand_hits::total         20979651                       # number of demand (read+write) hits
system.cpu.dcache.overall_hits::.cpu.data     20979651                       # number of overall hits
system.cpu.dcache.overall_hits::total        20979651                       # number of overall hits
system.cpu.dcache.demand_misses::.cpu.data         1040                       # number of demand (read+write) misses
system.cpu.dcache.demand_misses::total           1040                       # number of demand (read+write) misses
system.cpu.dcache.overall_misses::.cpu.data         1040                       # number of overall misses
system.cpu.dcache.overall_misses::total          1040                       # number of overall misses
system.cpu.dcache.demand_miss_latency::.cpu.data     76598123                       # number of demand (read+write) miss cycles
system.cpu.dcache.demand_miss_latency::total     76598123                       # number of demand (read+write) miss cycles
system.cpu.dcache.overall_miss_latency::.cpu.data     76598123                       # number of overall miss cycles
system.cpu.dcache.overall_miss_latency::total     76598123                       # number of overall miss cycles
system.cpu.dcache.demand_accesses::.cpu.data     20980691                       # number of demand (read+write) accesses
system.cpu.dcache.demand_accesses::total     20980691                       # number of demand (read+write) accesses
system.cpu.dcache.overall_accesses::.cpu.data     20980691                       # number of overall (read+write) accesses
system.cpu.dcache.overall_accesses::total     20980691                       # number of overall (read+write) accesses
system.cpu.dcache.demand_miss_rate::.cpu.data     0.000050                       # miss rate for demand accesses
system.cpu.dcache.demand_miss_rate::total     0.000050                       # miss rate for demand accesses
system.cpu.dcache.overall_miss_rate::.cpu.data     0.000050                       # miss rate for overall accesses
system.cpu.dcache.overall_miss_rate::total     0.000050                       # miss rate for overall accesses
system.cpu.dcache.demand_avg_miss_latency::.cpu.data 73652.041346                       # average overall miss latency
system.cpu.dcache.demand_avg_miss_latency::total 73652.041346                       # average overall miss latency
system.cpu.dcache.overall_avg_miss_latency::.cpu.data 73652.041346                       # average overall miss latency
system.cpu.dcache.overall_avg_miss_latency::total 73652.041346                       # average overall miss latency
system.cpu.dcache.blocked_cycles::no_mshrs          301                       # number of cycles access was blocked
system.cpu.dcache.blocked_cycles::no_targets            0                       # number of cycles access was blocked
system.cpu.dcache.blocked::no_mshrs                 8                       # number of cycles access was blocked
system.cpu.dcache.blocked::no_targets               0                       # number of cycles access was blocked
system.cpu.dcache.avg_blocked_cycles::no_mshrs    37.625000                       # average number of cycles each access was blocked
system.cpu.dcache.avg_blocked_cycles::no_targets          nan                       # average number of cycles each access was blocked
system.cpu.dcache.demand_mshr_hits::.cpu.data          787                       # number of demand (read+write) MSHR hits
system.cpu.dcache.demand_mshr_hits::total          787                       # number of demand (read+write) MSHR hits
system.cpu.dcache.overall_mshr_hits::.cpu.data          787                       # number of overall MSHR hits
system.cpu.dcache.overall_mshr_hits::total          787                       # number of overall MSHR hits
system.cpu.dcache.demand_mshr_misses::.cpu.data          253                       # number of demand (read+write) MSHR misses
system.cpu.dcache.demand_mshr_misses::total          253                       # number of demand (read+write) MSHR misses
system.cpu.dcache.overall_mshr_misses::.cpu.data          253                       # number of overall MSHR misses
system.cpu.dcache.overall_mshr_misses::total          253                       # number of overall MSHR misses
system.cpu.dcache.demand_mshr_miss_latency::.cpu.data     22837499                       # number of demand (read+write) MSHR miss cycles
system.cpu.dcache.demand_mshr_miss_latency::total     22837499                       # number of demand (read+write) MSHR miss cycles
system.cpu.dcache.overall_mshr_miss_latency::.cpu.data     22837499                       # number of overall MSHR miss cycles
system.cpu.dcache.overall_mshr_miss_latency::total     22837499                       # number of overall MSHR miss cycles
system.cpu.dcache.demand_mshr_miss_rate::.cpu.data     0.000012                       # mshr miss rate for demand accesses
system.cpu.dcache.demand_mshr_miss_rate::total     0.000012                       # mshr miss rate for demand accesses
system.cpu.dcache.overall_mshr_miss_rate::.cpu.data     0.000012                       # mshr miss rate for overall accesses
system.cpu.dcache.overall_mshr_miss_rate::total     0.000012                       # mshr miss rate for overall accesses
system.cpu.dcache.demand_avg_mshr_miss_latency::.cpu.data 90266.794466                       # average overall mshr miss latency
system.cpu.dcache.demand_avg_mshr_miss_latency::total 90266.794466                       # average overall mshr miss latency
system.cpu.dcache.overall_avg_mshr_miss_latency::.cpu.data 90266.794466                       # average overall mshr miss latency
system.cpu.dcache.overall_avg_mshr_miss_latency::total 90266.794466                       # average overall mshr miss latency
system.cpu.dcache.replacements                      3                       # number of replacements
system.cpu.dcache.ReadReq_hits::.cpu.data     12583920                       # number of ReadReq hits
system.cpu.dcache.ReadReq_hits::total        12583920                       # number of ReadReq hits
system.cpu.dcache.ReadReq_misses::.cpu.data          300                       # number of ReadReq misses
system.cpu.dcache.ReadReq_misses::total           300                       # number of ReadReq misses
system.cpu.dcache.ReadReq_miss_latency::.cpu.data     29021875                       # number of ReadReq miss cycles
system.cpu.dcache.ReadReq_miss_latency::total     29021875                       # number of ReadReq miss cycles
system.cpu.dcache.ReadReq_accesses::.cpu.data     12584220                       # number of ReadReq accesses(hits+misses)
system.cpu.dcache.ReadReq_accesses::total     12584220                       # number of ReadReq accesses(hits+misses)
system.cpu.dcache.ReadReq_miss_rate::.cpu.data     0.000024                       # miss rate for ReadReq accesses
system.cpu.dcache.ReadReq_miss_rate::total     0.000024                       # miss rate for ReadReq accesses
system.cpu.dcache.ReadReq_avg_miss_latency::.cpu.data 96739.583333                       # average ReadReq miss latency
system.cpu.dcache.ReadReq_avg_miss_latency::total 96739.583333                       # average ReadReq miss latency
system.cpu.dcache.ReadReq_mshr_hits::.cpu.data          168                       # number of ReadReq MSHR hits
system.cpu.dcache.ReadReq_mshr_hits::total          168                       # number of ReadReq MSHR hits
system.cpu.dcache.ReadReq_mshr_misses::.cpu.data          132                       # number of ReadReq MSHR misses
system.cpu.dcache.ReadReq_mshr_misses::total          132                       # number of ReadReq MSHR misses
system.cpu.dcache.ReadReq_mshr_miss_latency::.cpu.data     11907500                       # number of ReadReq MSHR miss cycles
system.cpu.dcache.ReadReq_mshr_miss_latency::total     11907500                       # number of ReadReq MSHR miss cycles
system.cpu.dcache.ReadReq_mshr_miss_rate::.cpu.data     0.000010                       # mshr miss rate for ReadReq accesses
system.cpu.dcache.ReadReq_mshr_miss_rate::total     0.000010                       # mshr miss rate for ReadReq accesses
system.cpu.dcache.ReadReq_avg_mshr_miss_latency::.cpu.data 90208.333333                       # average ReadReq mshr miss latency
system.cpu.dcache.ReadReq_avg_mshr_miss_latency::total 90208.333333                       # average ReadReq mshr miss latency
system.cpu.dcache.WriteReq_hits::.cpu.data      8395731                       # number of WriteReq hits
system.cpu.dcache.WriteReq_hits::total        8395731                       # number of WriteReq hits
system.cpu.dcache.WriteReq_misses::.cpu.data          740                       # number of WriteReq misses
system.cpu.dcache.WriteReq_misses::total          740                       # number of WriteReq misses
system.cpu.dcache.WriteReq_miss_latency::.cpu.data     47576248                       # number of WriteReq miss cycles
system.cpu.dcache.WriteReq_miss_latency::total     47576248                       # number of WriteReq miss cycles
system.cpu.dcache.WriteReq_accesses::.cpu.data      8396471                       # number of WriteReq accesses(hits+misses)
system.cpu.dcache.WriteReq_accesses::total      8396471                       # number of WriteReq accesses(hits+misses)
system.cpu.dcache.WriteReq_miss_rate::.cpu.data     0.000088                       # miss rate for WriteReq accesses
system.cpu.dcache.WriteReq_miss_rate::total     0.000088                       # miss rate for WriteReq accesses
system.cpu.dcache.WriteReq_avg_miss_latency::.cpu.data 64292.227027                       # average WriteReq miss latency
system.cpu.dcache.WriteReq_avg_miss_latency::total 64292.227027                       # average WriteReq miss latency
system.cpu.dcache.WriteReq_mshr_hits::.cpu.data          619                       # number of WriteReq MSHR hits
system.cpu.dcache.WriteReq_mshr_hits::total          619                       # number of WriteReq MSHR hits
system.cpu.dcache.WriteReq_mshr_misses::.cpu.data          121                       # number of WriteReq MSHR misses
system.cpu.dcache.WriteReq_mshr_misses::total          121                       # number of WriteReq MSHR misses
system.cpu.dcache.WriteReq_mshr_miss_latency::.cpu.data     10929999                       # number of WriteReq MSHR miss cycles
system.cpu.dcache.WriteReq_mshr_miss_latency::total     10929999                       # number of WriteReq MSHR miss cycles
system.cpu.dcache.WriteReq_mshr_miss_rate::.cpu.data     0.000014                       # mshr miss rate for WriteReq accesses
system.cpu.dcache.WriteReq_mshr_miss_rate::total     0.000014                       # mshr miss rate for WriteReq accesses
system.cpu.dcache.WriteReq_avg_mshr_miss_latency::.cpu.data 90330.570248                       # average WriteReq mshr miss latency
system.cpu.dcache.WriteReq_avg_mshr_miss_latency::total 90330.570248                       # average WriteReq mshr miss latency
system.cpu.dcache.LoadLockedReq_hits::.cpu.data           18                       # number of LoadLockedReq hits
system.cpu.dcache.LoadLockedReq_hits::total           18                       # number of LoadLockedReq hits
system.cpu.dcache.LoadLockedReq_misses::.cpu.data            2                       # number of LoadLockedReq misses
system.cpu.dcache.LoadLockedReq_misses::total            2                       # number of LoadLockedReq misses
system.cpu.dcache.LoadLockedReq_miss_latency::.cpu.data       151250                       # number of LoadLockedReq miss cycles
system.cpu.dcache.LoadLockedReq_miss_latency::total       151250                       # number of LoadLockedReq miss cycles
system.cpu.dcache.LoadLockedReq_accesses::.cpu.data           20                       # number of LoadLockedReq accesses(hits+misses)
system.cpu.dcache.LoadLockedReq_accesses::total           20                       # number of LoadLockedReq accesses(hits+misses)
system.cpu.dcache.LoadLockedReq_miss_rate::.cpu.data     0.100000                       # miss rate for LoadLockedReq accesses
system.cpu.dcache.LoadLockedReq_miss_rate::total     0.100000                       # miss rate for LoadLockedReq accesses
system.cpu.dcache.LoadLockedReq_avg_miss_latency::.cpu.data        75625                       # average LoadLockedReq miss latency
system.cpu.dcache.LoadLockedReq_avg_miss_latency::total        75625                       # average LoadLockedReq miss latency
system.cpu.dcache.LoadLockedReq_mshr_hits::.cpu.data            2                       # number of LoadLockedReq MSHR hits
system.cpu.dcache.LoadLockedReq_mshr_hits::total            2                       # number of LoadLockedReq MSHR hits
system.cpu.dcache.StoreCondReq_hits::.cpu.data           19                       # number of StoreCondReq hits
system.cpu.dcache.StoreCondReq_hits::total           19                       # number of StoreCondReq hits
system.cpu.dcache.StoreCondReq_accesses::.cpu.data           19                       # number of StoreCondReq accesses(hits+misses)
system.cpu.dcache.StoreCondReq_accesses::total           19                       # number of StoreCondReq accesses(hits+misses)
system.cpu.dcache.tags.pwrStateResidencyTicks::UNDEFINED  58342393750                       # Cumulative time (in ticks) in various power states
system.cpu.dcache.tags.tagsinuse           249.897323                       # Cycle average of tags in use
system.cpu.dcache.tags.total_refs            20979941                       # Total number of references to valid blocks.
system.cpu.dcache.tags.sampled_refs               253                       # Sample count of references to valid blocks.
system.cpu.dcache.tags.avg_refs          82924.667984                       # Average number of references to valid blocks.
system.cpu.dcache.tags.warmup_cycle            173750                       # Cycle when the warmup percentage was hit.
system.cpu.dcache.tags.occ_blocks::.cpu.data   249.897323                       # Average occupied blocks per requestor
system.cpu.dcache.tags.occ_percent::.cpu.data     0.488081                       # Average percentage of cache occupancy
system.cpu.dcache.tags.occ_percent::total     0.488081                       # Average percentage of cache occupancy
system.cpu.dcache.tags.occ_task_id_blocks::1024          250                       # Occupied blocks per task id
system.cpu.dcache.tags.age_task_id_blocks_1024::4          250                       # Occupied blocks per task id
system.cpu.dcache.tags.occ_task_id_percent::1024     0.488281                       # Percentage of cache occupancy per task id
system.cpu.dcache.tags.tag_accesses          83923173                       # Number of tag accesses
system.cpu.dcache.tags.data_accesses         83923173                       # Number of data accesses

---------- End Simulation Statistics   ----------
