
---------- Begin Simulation Statistics ----------
final_tick                                17385406250                       # Number of ticks from beginning of simulation (restored from checkpoints and never reset)
host_inst_rate                                 142292                       # Simulator instruction rate (inst/s)
host_mem_usage                                 678104                       # Number of bytes of host memory used
host_op_rate                                   143241                       # Simulator op (including micro ops) rate (op/s)
host_seconds                                   234.98                       # Real time elapsed on the host
host_tick_rate                               73986933                       # Simulator tick rate (ticks/s)
sim_freq                                 1000000000000                       # Frequency of simulated ticks
sim_insts                                    33435635                       # Number of instructions simulated
sim_ops                                      33658747                       # Number of ops (including micro ops) simulated
sim_seconds                                  0.017385                       # Number of seconds simulated
sim_ticks                                 17385406250                       # Number of ticks simulated
system.cpu.branchPred.BTBCorrect                    0                       # Number of correct BTB predictions (this stat may not work properly.
system.cpu.branchPred.BTBHitPct             95.189776                       # BTB Hit Percentage
system.cpu.branchPred.BTBHits                 2008470                       # Number of BTB hits
system.cpu.branchPred.BTBLookups              2109964                       # Number of BTB lookups
system.cpu.branchPred.RASInCorrect                163                       # Number of incorrect RAS predictions.
system.cpu.branchPred.condIncorrect             32595                       # Number of conditional branches incorrect
system.cpu.branchPred.condPredicted           1009269                       # Number of conditional branches predicted
system.cpu.branchPred.indirectHits             100092                       # Number of indirect target hits.
system.cpu.branchPred.indirectLookups          100508                       # Number of indirect predictor lookups.
system.cpu.branchPred.indirectMisses              416                       # Number of indirect misses.
system.cpu.branchPred.lookups                 3219969                       # Number of BP lookups
system.cpu.branchPred.usedRAS                 1104764                       # Number of times the RAS was used to get a target.
system.cpu.branchPredindirectMispredicted        27160                       # Number of mispredicted indirect branches.
system.cpu.cc_regfile_reads                 126909987                       # number of cc regfile reads
system.cpu.cc_regfile_writes                  3325840                       # number of cc regfile writes
system.cpu.commit.amos                              0                       # Number of atomic instructions committed
system.cpu.commit.branchMispredicts             32178                       # The number of times a branch was mispredicted
system.cpu.commit.branches                    3208599                       # Number of branches committed
system.cpu.commit.bw_lim_events                275778                       # number cycles where commit BW limit reached
system.cpu.commit.commitNonSpecStalls             117                       # The number of times commit has been forced to stall to communicate backwards
system.cpu.commit.commitSquashedInsts          272144                       # The number of squashed insts skipped by commit
system.cpu.commit.committedInsts             33435635                       # Number of instructions committed
system.cpu.commit.committedOps               33658747                       # Number of ops (including micro ops) committed
system.cpu.commit.committed_per_cycle::samples     27707307                       # Number of insts commited each cycle
system.cpu.commit.committed_per_cycle::mean     1.214797                       # Number of insts commited each cycle
system.cpu.commit.committed_per_cycle::stdev     1.566711                       # Number of insts commited each cycle
system.cpu.commit.committed_per_cycle::underflows            0      0.00%      0.00% # Number of insts commited each cycle
system.cpu.commit.committed_per_cycle::0     11849899     42.77%     42.77% # Number of insts commited each cycle
system.cpu.commit.committed_per_cycle::1      8691643     31.37%     74.14% # Number of insts commited each cycle
system.cpu.commit.committed_per_cycle::2      1593698      5.75%     79.89% # Number of insts commited each cycle
system.cpu.commit.committed_per_cycle::3      2751672      9.93%     89.82% # Number of insts commited each cycle
system.cpu.commit.committed_per_cycle::4      1552676      5.60%     95.42% # Number of insts commited each cycle
system.cpu.commit.committed_per_cycle::5       917462      3.31%     98.74% # Number of insts commited each cycle
system.cpu.commit.committed_per_cycle::6          899      0.00%     98.74% # Number of insts commited each cycle
system.cpu.commit.committed_per_cycle::7        73580      0.27%     99.00% # Number of insts commited each cycle
system.cpu.commit.committed_per_cycle::8       275778      1.00%    100.00% # Number of insts commited each cycle
system.cpu.commit.committed_per_cycle::overflows            0      0.00%    100.00% # Number of insts commited each cycle
system.cpu.commit.committed_per_cycle::min_value            0                       # Number of insts commited each cycle
system.cpu.commit.committed_per_cycle::max_value            8                       # Number of insts commited each cycle
system.cpu.commit.committed_per_cycle::total     27707307                       # Number of insts commited each cycle
system.cpu.commit.fp_insts                          0                       # Number of committed floating point instructions.
system.cpu.commit.function_calls              1100703                       # Number of function calls committed.
system.cpu.commit.int_insts                  32651744                       # Number of committed integer instructions.
system.cpu.commit.loads                       8426837                       # Number of loads committed
system.cpu.commit.membars                          52                       # Number of memory barriers committed
system.cpu.commit.op_class_0::No_OpClass            0      0.00%      0.00% # Class of committed instruction
system.cpu.commit.op_class_0::IntAlu         21388845     63.55%     63.55% # Class of committed instruction
system.cpu.commit.op_class_0::IntMult             155      0.00%     63.55% # Class of committed instruction
system.cpu.commit.op_class_0::IntDiv                0      0.00%     63.55% # Class of committed instruction
system.cpu.commit.op_class_0::FloatAdd              0      0.00%     63.55% # Class of committed instruction
system.cpu.commit.op_class_0::FloatCmp              0      0.00%     63.55% # Class of committed instruction
system.cpu.commit.op_class_0::FloatCvt              0      0.00%     63.55% # Class of committed instruction
system.cpu.commit.op_class_0::FloatMult             0      0.00%     63.55% # Class of committed instruction
system.cpu.commit.op_class_0::FloatMultAcc            0      0.00%     63.55% # Class of committed instruction
system.cpu.commit.op_class_0::FloatDiv              0      0.00%     63.55% # Class of committed instruction
system.cpu.commit.op_class_0::FloatMisc             0      0.00%     63.55% # Class of committed instruction
system.cpu.commit.op_class_0::FloatSqrt             0      0.00%     63.55% # Class of committed instruction
system.cpu.commit.op_class_0::SimdAdd               0      0.00%     63.55% # Class of committed instruction
system.cpu.commit.op_class_0::SimdAddAcc            0      0.00%     63.55% # Class of committed instruction
system.cpu.commit.op_class_0::SimdAlu               0      0.00%     63.55% # Class of committed instruction
system.cpu.commit.op_class_0::SimdCmp               0      0.00%     63.55% # Class of committed instruction
system.cpu.commit.op_class_0::SimdCvt               0      0.00%     63.55% # Class of committed instruction
system.cpu.commit.op_class_0::SimdMisc              0      0.00%     63.55% # Class of committed instruction
system.cpu.commit.op_class_0::SimdMult              0      0.00%     63.55% # Class of committed instruction
system.cpu.commit.op_class_0::SimdMultAcc            0      0.00%     63.55% # Class of committed instruction
system.cpu.commit.op_class_0::SimdShift             0      0.00%     63.55% # Class of committed instruction
system.cpu.commit.op_class_0::SimdShiftAcc            0      0.00%     63.55% # Class of committed instruction
system.cpu.commit.op_class_0::SimdDiv               0      0.00%     63.55% # Class of committed instruction
system.cpu.commit.op_class_0::SimdSqrt              0      0.00%     63.55% # Class of committed instruction
system.cpu.commit.op_class_0::SimdFloatAdd            0      0.00%     63.55% # Class of committed instruction
system.cpu.commit.op_class_0::SimdFloatAlu            0      0.00%     63.55% # Class of committed instruction
system.cpu.commit.op_class_0::SimdFloatCmp            0      0.00%     63.55% # Class of committed instruction
system.cpu.commit.op_class_0::SimdFloatCvt            0      0.00%     63.55% # Class of committed instruction
system.cpu.commit.op_class_0::SimdFloatDiv            0      0.00%     63.55% # Class of committed instruction
system.cpu.commit.op_class_0::SimdFloatMisc            4      0.00%     63.55% # Class of committed instruction
system.cpu.commit.op_class_0::SimdFloatMult            0      0.00%     63.55% # Class of committed instruction
system.cpu.commit.op_class_0::SimdFloatMultAcc            0      0.00%     63.55% # Class of committed instruction
system.cpu.commit.op_class_0::SimdFloatSqrt            0      0.00%     63.55% # Class of committed instruction
system.cpu.commit.op_class_0::SimdReduceAdd            0      0.00%     63.55% # Class of committed instruction
system.cpu.commit.op_class_0::SimdReduceAlu            0      0.00%     63.55% # Class of committed instruction
system.cpu.commit.op_class_0::SimdReduceCmp            0      0.00%     63.55% # Class of committed instruction
system.cpu.commit.op_class_0::SimdFloatReduceAdd            0      0.00%     63.55% # Class of committed instruction
system.cpu.commit.op_class_0::SimdFloatReduceCmp            0      0.00%     63.55% # Class of committed instruction
system.cpu.commit.op_class_0::SimdAes               0      0.00%     63.55% # Class of committed instruction
system.cpu.commit.op_class_0::SimdAesMix            0      0.00%     63.55% # Class of committed instruction
system.cpu.commit.op_class_0::SimdSha1Hash            0      0.00%     63.55% # Class of committed instruction
system.cpu.commit.op_class_0::SimdSha1Hash2            0      0.00%     63.55% # Class of committed instruction
system.cpu.commit.op_class_0::SimdSha256Hash            0      0.00%     63.55% # Class of committed instruction
system.cpu.commit.op_class_0::SimdSha256Hash2            0      0.00%     63.55% # Class of committed instruction
system.cpu.commit.op_class_0::SimdShaSigma2            0      0.00%     63.55% # Class of committed instruction
system.cpu.commit.op_class_0::SimdShaSigma3            0      0.00%     63.55% # Class of committed instruction
system.cpu.commit.op_class_0::SimdPredAlu            0      0.00%     63.55% # Class of committed instruction
system.cpu.commit.op_class_0::MemRead         8426837     25.04%     88.58% # Class of committed instruction
system.cpu.commit.op_class_0::MemWrite        3842906     11.42%    100.00% # Class of committed instruction
system.cpu.commit.op_class_0::FloatMemRead            0      0.00%    100.00% # Class of committed instruction
system.cpu.commit.op_class_0::FloatMemWrite            0      0.00%    100.00% # Class of committed instruction
system.cpu.commit.op_class_0::IprAccess             0      0.00%    100.00% # Class of committed instruction
system.cpu.commit.op_class_0::InstPrefetch            0      0.00%    100.00% # Class of committed instruction
system.cpu.commit.op_class_0::total          33658747                       # Class of committed instruction
system.cpu.commit.refs                       12269743                       # Number of memory references committed
system.cpu.commit.swp_count                         0                       # Number of s/w prefetches committed
system.cpu.commit.vec_insts                         0                       # Number of committed Vector instructions.
system.cpu.committedInsts                    33435635                       # Number of Instructions Simulated
system.cpu.committedOps                      33658747                       # Number of Ops (including micro ops) Simulated
system.cpu.cpi                               0.831946                       # CPI: Cycles Per Instruction
system.cpu.cpi_total                         0.831946                       # CPI: Total CPI of All Threads
system.cpu.decode.BlockedCycles                431726                       # Number of cycles decode is blocked
system.cpu.decode.BranchMispred                   474                       # Number of times decode detected a branch misprediction
system.cpu.decode.BranchResolved              2006337                       # Number of times decode resolved a branch
system.cpu.decode.DecodedInsts               34130200                       # Number of instructions handled by decode
system.cpu.decode.IdleCycles                 10691922                       # Number of cycles decode is idle
system.cpu.decode.RunCycles                  16560388                       # Number of cycles decode is running
system.cpu.decode.SquashCycles                  32235                       # Number of cycles decode is squashing
system.cpu.decode.SquashedInsts                100824                       # Number of squashed instructions handled by decode
system.cpu.decode.UnblockCycles                 41723                       # Number of cycles decode is unblocking
system.cpu.dtb.accesses                             0                       # DTB accesses
system.cpu.dtb.align_faults                         0                       # Number of TLB faults due to alignment restrictions
system.cpu.dtb.domain_faults                        0                       # Number of TLB faults due to domain restrictions
system.cpu.dtb.flush_entries                        0                       # Number of entries that have been flushed from TLB
system.cpu.dtb.flush_tlb                            0                       # Number of times complete TLB was flushed
system.cpu.dtb.flush_tlb_asid                       0                       # Number of times TLB was flushed by ASID
system.cpu.dtb.flush_tlb_mva                        0                       # Number of times TLB was flushed by MVA
system.cpu.dtb.flush_tlb_mva_asid                   0                       # Number of times TLB was flushed by MVA & ASID
system.cpu.dtb.hits                                 0                       # DTB hits
system.cpu.dtb.inst_accesses                        0                       # ITB inst accesses
system.cpu.dtb.inst_hits                            0                       # ITB inst hits
system.cpu.dtb.inst_misses                          0                       # ITB inst misses
system.cpu.dtb.misses                               0                       # DTB misses
system.cpu.dtb.perms_faults                         0                       # Number of TLB faults due to permissions restrictions
system.cpu.dtb.prefetch_faults                      0                       # Number of TLB faults due to prefetch
system.cpu.dtb.read_accesses                        0                       # DTB read accesses
system.cpu.dtb.read_hits                            0                       # DTB read hits
system.cpu.dtb.read_misses                          0                       # DTB read misses
system.cpu.dtb.stage2_mmu.stage2_tlb.accesses            0                       # DTB accesses
system.cpu.dtb.stage2_mmu.stage2_tlb.align_faults            0                       # Number of TLB faults due to alignment restrictions
system.cpu.dtb.stage2_mmu.stage2_tlb.domain_faults            0                       # Number of TLB faults due to domain restrictions
system.cpu.dtb.stage2_mmu.stage2_tlb.flush_entries            0                       # Number of entries that have been flushed from TLB
system.cpu.dtb.stage2_mmu.stage2_tlb.flush_tlb            0                       # Number of times complete TLB was flushed
system.cpu.dtb.stage2_mmu.stage2_tlb.flush_tlb_asid            0                       # Number of times TLB was flushed by ASID
system.cpu.dtb.stage2_mmu.stage2_tlb.flush_tlb_mva            0                       # Number of times TLB was flushed by MVA
system.cpu.dtb.stage2_mmu.stage2_tlb.flush_tlb_mva_asid            0                       # Number of times TLB was flushed by MVA & ASID
system.cpu.dtb.stage2_mmu.stage2_tlb.hits            0                       # DTB hits
system.cpu.dtb.stage2_mmu.stage2_tlb.inst_accesses            0                       # ITB inst accesses
system.cpu.dtb.stage2_mmu.stage2_tlb.inst_hits            0                       # ITB inst hits
system.cpu.dtb.stage2_mmu.stage2_tlb.inst_misses            0                       # ITB inst misses
system.cpu.dtb.stage2_mmu.stage2_tlb.misses            0                       # DTB misses
system.cpu.dtb.stage2_mmu.stage2_tlb.perms_faults            0                       # Number of TLB faults due to permissions restrictions
system.cpu.dtb.stage2_mmu.stage2_tlb.prefetch_faults            0                       # Number of TLB faults due to prefetch
system.cpu.dtb.stage2_mmu.stage2_tlb.read_accesses            0                       # DTB read accesses
system.cpu.dtb.stage2_mmu.stage2_tlb.read_hits            0                       # DTB read hits
system.cpu.dtb.stage2_mmu.stage2_tlb.read_misses            0                       # DTB read misses
system.cpu.dtb.stage2_mmu.stage2_tlb.walker.walkRequestOrigin_Requested::Data            0                       # Table walker requests started/completed, data/inst
system.cpu.dtb.stage2_mmu.stage2_tlb.walker.walkRequestOrigin_Requested::Inst            0                       # Table walker requests started/completed, data/inst
system.cpu.dtb.stage2_mmu.stage2_tlb.walker.walkRequestOrigin_Requested::total            0                       # Table walker requests started/completed, data/inst
system.cpu.dtb.stage2_mmu.stage2_tlb.walker.walkRequestOrigin_Completed::Data            0                       # Table walker requests started/completed, data/inst
system.cpu.dtb.stage2_mmu.stage2_tlb.walker.walkRequestOrigin_Completed::Inst            0                       # Table walker requests started/completed, data/inst
system.cpu.dtb.stage2_mmu.stage2_tlb.walker.walkRequestOrigin_Completed::total            0                       # Table walker requests started/completed, data/inst
system.cpu.dtb.stage2_mmu.stage2_tlb.walker.walkRequestOrigin::total            0                       # Table walker requests started/completed, data/inst
system.cpu.dtb.stage2_mmu.stage2_tlb.walker.walks            0                       # Table walker walks requested
system.cpu.dtb.stage2_mmu.stage2_tlb.write_accesses            0                       # DTB write accesses
system.cpu.dtb.stage2_mmu.stage2_tlb.write_hits            0                       # DTB write hits
system.cpu.dtb.stage2_mmu.stage2_tlb.write_misses            0                       # DTB write misses
system.cpu.dtb.walker.walkRequestOrigin_Requested::Data            0                       # Table walker requests started/completed, data/inst
system.cpu.dtb.walker.walkRequestOrigin_Requested::Inst            0                       # Table walker requests started/completed, data/inst
system.cpu.dtb.walker.walkRequestOrigin_Requested::total            0                       # Table walker requests started/completed, data/inst
system.cpu.dtb.walker.walkRequestOrigin_Completed::Data            0                       # Table walker requests started/completed, data/inst
system.cpu.dtb.walker.walkRequestOrigin_Completed::Inst            0                       # Table walker requests started/completed, data/inst
system.cpu.dtb.walker.walkRequestOrigin_Completed::total            0                       # Table walker requests started/completed, data/inst
system.cpu.dtb.walker.walkRequestOrigin::total            0                       # Table walker requests started/completed, data/inst
system.cpu.dtb.walker.walks                         0                       # Table walker walks requested
system.cpu.dtb.write_accesses                       0                       # DTB write accesses
system.cpu.dtb.write_hits                           0                       # DTB write hits
system.cpu.dtb.write_misses                         0                       # DTB write misses
system.cpu.fetch.Branches                     3219969                       # Number of branches that fetch encountered
system.cpu.fetch.CacheLines                  10865432                       # Number of cache lines fetched
system.cpu.fetch.Cycles                      16822050                       # Number of cycles fetch has run and was not squashing or blocked
system.cpu.fetch.IcacheSquashes                  9962                       # Number of outstanding Icache misses that were squashed
system.cpu.fetch.IcacheWaitRetryStallCycles           14                       # Number of stall cycles due to full MSHR
system.cpu.fetch.Insts                       34000852                       # Number of instructions fetch has processed
system.cpu.fetch.MiscStallCycles                   38                       # Number of cycles fetch has spent waiting on interrupts, or bad addresses, or out of MSHRs
system.cpu.fetch.PendingTrapStallCycles           534                       # Number of stall cycles due to pending traps
system.cpu.fetch.SquashCycles                   65374                       # Number of cycles fetch has spent squashing
system.cpu.fetch.branchRate                  0.115757                       # Number of branch fetches per cycle
system.cpu.fetch.icacheStallCycles           10902671                       # Number of cycles fetch is stalled on an Icache miss
system.cpu.fetch.predictedBranches            3213326                       # Number of branches that fetch has predicted taken
system.cpu.fetch.rate                        1.222320                       # Number of inst fetches per cycle
system.cpu.fetch.rateDist::samples           27757994                       # Number of instructions fetched each cycle (Total)
system.cpu.fetch.rateDist::mean              1.234032                       # Number of instructions fetched each cycle (Total)
system.cpu.fetch.rateDist::stdev             1.237948                       # Number of instructions fetched each cycle (Total)
system.cpu.fetch.rateDist::underflows               0      0.00%      0.00% # Number of instructions fetched each cycle (Total)
system.cpu.fetch.rateDist::0                 11002245     39.64%     39.64% # Number of instructions fetched each cycle (Total)
system.cpu.fetch.rateDist::1                  7036818     25.35%     64.99% # Number of instructions fetched each cycle (Total)
system.cpu.fetch.rateDist::2                  1939362      6.99%     71.97% # Number of instructions fetched each cycle (Total)
system.cpu.fetch.rateDist::3                  7779569     28.03%    100.00% # Number of instructions fetched each cycle (Total)
system.cpu.fetch.rateDist::overflows                0      0.00%    100.00% # Number of instructions fetched each cycle (Total)
system.cpu.fetch.rateDist::min_value                0                       # Number of instructions fetched each cycle (Total)
system.cpu.fetch.rateDist::max_value                3                       # Number of instructions fetched each cycle (Total)
system.cpu.fetch.rateDist::total             27757994                       # Number of instructions fetched each cycle (Total)
system.cpu.idleCycles                           58657                       # Total number of cycles that the CPU has spent unscheduled due to idling
system.cpu.iew.branchMispredicts                32263                       # Number of branch mispredicts detected at execute
system.cpu.iew.exec_branches                  3209585                       # Number of branches executed
system.cpu.iew.exec_nop                             3                       # number of nop insts executed
system.cpu.iew.exec_rate                     1.217818                       # Inst execution rate
system.cpu.iew.exec_refs                     12315443                       # number of memory reference insts executed
system.cpu.iew.exec_stores                    3870199                       # Number of stores executed
system.cpu.iew.exec_swp                             0                       # number of swp insts executed
system.cpu.iew.iewBlockCycles                   18452                       # Number of cycles IEW is blocking
system.cpu.iew.iewDispLoadInsts               8493820                       # Number of dispatched load instructions
system.cpu.iew.iewDispNonSpecInsts                 67                       # Number of dispatched non-speculative instructions
system.cpu.iew.iewDispSquashedInsts                 0                       # Number of squashed instructions skipped by dispatch
system.cpu.iew.iewDispStoreInsts              3900194                       # Number of dispatched store instructions
system.cpu.iew.iewDispatchedInsts            34005723                       # Number of instructions dispatched to IQ
system.cpu.iew.iewExecLoadInsts               8445244                       # Number of load instructions executed
system.cpu.iew.iewExecSquashedInsts             58575                       # Number of squashed instructions skipped in execute
system.cpu.iew.iewExecutedInsts              33875632                       # Number of executed instructions
system.cpu.iew.iewIQFullEvents                      0                       # Number of times the IQ has become full, causing a stall
system.cpu.iew.iewIdleCycles                        0                       # Number of cycles IEW is idle
system.cpu.iew.iewLSQFullEvents                  5183                       # Number of times the LSQ has become full, causing a stall
system.cpu.iew.iewSquashCycles                  32235                       # Number of cycles IEW is squashing
system.cpu.iew.iewUnblockCycles                  5173                       # Number of cycles IEW is unblocking
system.cpu.iew.lsq.thread0.blockedLoads             0                       # Number of blocked loads due to partial load-store forwarding
system.cpu.iew.lsq.thread0.cacheBlocked             3                       # Number of times an access to memory failed due to the cache being blocked
system.cpu.iew.lsq.thread0.forwLoads            52897                       # Number of loads that had data forwarded from stores
system.cpu.iew.lsq.thread0.ignoredResponses            4                       # Number of memory responses ignored because the instruction is squashed
system.cpu.iew.lsq.thread0.invAddrLoads             0                       # Number of loads ignored due to an invalid address
system.cpu.iew.lsq.thread0.invAddrSwpfs             0                       # Number of software prefetches ignored due to an invalid address
system.cpu.iew.lsq.thread0.memOrderViolation           45                       # Number of memory ordering violations
system.cpu.iew.lsq.thread0.rescheduledLoads            6                       # Number of loads that were rescheduled
system.cpu.iew.lsq.thread0.squashedLoads        66983                       # Number of loads squashed
system.cpu.iew.lsq.thread0.squashedStores        57288                       # Number of stores squashed
system.cpu.iew.memOrderViolationEvents             45                       # Number of memory order violations
system.cpu.iew.predictedNotTakenIncorrect         1509                       # Number of branches that were predicted not taken incorrectly
system.cpu.iew.predictedTakenIncorrect          30754                       # Number of branches that were predicted taken incorrectly
system.cpu.iew.wb_consumers                  22200759                       # num instructions consuming a value
system.cpu.iew.wb_count                      33858097                       # cumulative count of insts written-back
system.cpu.iew.wb_fanout                     0.980408                       # average fanout of values written-back
system.cpu.iew.wb_producers                  21765795                       # num instructions producing a value
system.cpu.iew.wb_rate                       1.217188                       # insts written-back per cycle
system.cpu.iew.wb_sent                       33858220                       # cumulative count of insts sent to commit
system.cpu.int_regfile_reads                 33145134                       # number of integer regfile reads
system.cpu.int_regfile_writes                26773333                       # number of integer regfile writes
system.cpu.ipc                               1.202001                       # IPC: Instructions Per Cycle
system.cpu.ipc_total                         1.202001                       # IPC: Total IPC of All Threads
system.cpu.iq.FU_type_0::No_OpClass                39      0.00%      0.00% # Type of FU issued
system.cpu.iq.FU_type_0::IntAlu              21597105     63.64%     63.64% # Type of FU issued
system.cpu.iq.FU_type_0::IntMult                  163      0.00%     63.64% # Type of FU issued
system.cpu.iq.FU_type_0::IntDiv                     0      0.00%     63.64% # Type of FU issued
system.cpu.iq.FU_type_0::FloatAdd                   0      0.00%     63.64% # Type of FU issued
system.cpu.iq.FU_type_0::FloatCmp                   0      0.00%     63.64% # Type of FU issued
system.cpu.iq.FU_type_0::FloatCvt                   0      0.00%     63.64% # Type of FU issued
system.cpu.iq.FU_type_0::FloatMult                  0      0.00%     63.64% # Type of FU issued
system.cpu.iq.FU_type_0::FloatMultAcc               0      0.00%     63.64% # Type of FU issued
system.cpu.iq.FU_type_0::FloatDiv                   0      0.00%     63.64% # Type of FU issued
system.cpu.iq.FU_type_0::FloatMisc                  0      0.00%     63.64% # Type of FU issued
system.cpu.iq.FU_type_0::FloatSqrt                  0      0.00%     63.64% # Type of FU issued
system.cpu.iq.FU_type_0::SimdAdd                    0      0.00%     63.64% # Type of FU issued
system.cpu.iq.FU_type_0::SimdAddAcc                 0      0.00%     63.64% # Type of FU issued
system.cpu.iq.FU_type_0::SimdAlu                    0      0.00%     63.64% # Type of FU issued
system.cpu.iq.FU_type_0::SimdCmp                    0      0.00%     63.64% # Type of FU issued
system.cpu.iq.FU_type_0::SimdCvt                    0      0.00%     63.64% # Type of FU issued
system.cpu.iq.FU_type_0::SimdMisc                   0      0.00%     63.64% # Type of FU issued
system.cpu.iq.FU_type_0::SimdMult                   0      0.00%     63.64% # Type of FU issued
system.cpu.iq.FU_type_0::SimdMultAcc                0      0.00%     63.64% # Type of FU issued
system.cpu.iq.FU_type_0::SimdShift                  0      0.00%     63.64% # Type of FU issued
system.cpu.iq.FU_type_0::SimdShiftAcc               0      0.00%     63.64% # Type of FU issued
system.cpu.iq.FU_type_0::SimdDiv                    0      0.00%     63.64% # Type of FU issued
system.cpu.iq.FU_type_0::SimdSqrt                   0      0.00%     63.64% # Type of FU issued
system.cpu.iq.FU_type_0::SimdFloatAdd               0      0.00%     63.64% # Type of FU issued
system.cpu.iq.FU_type_0::SimdFloatAlu               0      0.00%     63.64% # Type of FU issued
system.cpu.iq.FU_type_0::SimdFloatCmp               0      0.00%     63.64% # Type of FU issued
system.cpu.iq.FU_type_0::SimdFloatCvt               0      0.00%     63.64% # Type of FU issued
system.cpu.iq.FU_type_0::SimdFloatDiv               0      0.00%     63.64% # Type of FU issued
system.cpu.iq.FU_type_0::SimdFloatMisc              4      0.00%     63.64% # Type of FU issued
system.cpu.iq.FU_type_0::SimdFloatMult              0      0.00%     63.64% # Type of FU issued
system.cpu.iq.FU_type_0::SimdFloatMultAcc            0      0.00%     63.64% # Type of FU issued
system.cpu.iq.FU_type_0::SimdFloatSqrt              0      0.00%     63.64% # Type of FU issued
system.cpu.iq.FU_type_0::SimdReduceAdd              0      0.00%     63.64% # Type of FU issued
system.cpu.iq.FU_type_0::SimdReduceAlu              0      0.00%     63.64% # Type of FU issued
system.cpu.iq.FU_type_0::SimdReduceCmp              0      0.00%     63.64% # Type of FU issued
system.cpu.iq.FU_type_0::SimdFloatReduceAdd            0      0.00%     63.64% # Type of FU issued
system.cpu.iq.FU_type_0::SimdFloatReduceCmp            0      0.00%     63.64% # Type of FU issued
system.cpu.iq.FU_type_0::SimdAes                    0      0.00%     63.64% # Type of FU issued
system.cpu.iq.FU_type_0::SimdAesMix                 0      0.00%     63.64% # Type of FU issued
system.cpu.iq.FU_type_0::SimdSha1Hash               0      0.00%     63.64% # Type of FU issued
system.cpu.iq.FU_type_0::SimdSha1Hash2              0      0.00%     63.64% # Type of FU issued
system.cpu.iq.FU_type_0::SimdSha256Hash             0      0.00%     63.64% # Type of FU issued
system.cpu.iq.FU_type_0::SimdSha256Hash2            0      0.00%     63.64% # Type of FU issued
system.cpu.iq.FU_type_0::SimdShaSigma2              0      0.00%     63.64% # Type of FU issued
system.cpu.iq.FU_type_0::SimdShaSigma3              0      0.00%     63.64% # Type of FU issued
system.cpu.iq.FU_type_0::SimdPredAlu                0      0.00%     63.64% # Type of FU issued
system.cpu.iq.FU_type_0::MemRead              8466382     24.95%     88.59% # Type of FU issued
system.cpu.iq.FU_type_0::MemWrite             3870514     11.41%    100.00% # Type of FU issued
system.cpu.iq.FU_type_0::FloatMemRead               0      0.00%    100.00% # Type of FU issued
system.cpu.iq.FU_type_0::FloatMemWrite              0      0.00%    100.00% # Type of FU issued
system.cpu.iq.FU_type_0::IprAccess                  0      0.00%    100.00% # Type of FU issued
system.cpu.iq.FU_type_0::InstPrefetch               0      0.00%    100.00% # Type of FU issued
system.cpu.iq.FU_type_0::total               33934207                       # Type of FU issued
system.cpu.iq.fp_alu_accesses                       0                       # Number of floating point alu accesses
system.cpu.iq.fp_inst_queue_reads                   0                       # Number of floating instruction queue reads
system.cpu.iq.fp_inst_queue_wakeup_accesses            0                       # Number of floating instruction queue wakeup accesses
system.cpu.iq.fp_inst_queue_writes                  0                       # Number of floating instruction queue writes
system.cpu.iq.fu_busy_cnt                      686363                       # FU busy when requested
system.cpu.iq.fu_busy_rate                   0.020226                       # FU busy rate (busy events/executed inst)
system.cpu.iq.fu_full::No_OpClass                   0      0.00%      0.00% # attempts to use FU when none available
system.cpu.iq.fu_full::IntAlu                  100024     14.57%     14.57% # attempts to use FU when none available
system.cpu.iq.fu_full::IntMult                     61      0.01%     14.58% # attempts to use FU when none available
system.cpu.iq.fu_full::IntDiv                       0      0.00%     14.58% # attempts to use FU when none available
system.cpu.iq.fu_full::FloatAdd                     0      0.00%     14.58% # attempts to use FU when none available
system.cpu.iq.fu_full::FloatCmp                     0      0.00%     14.58% # attempts to use FU when none available
system.cpu.iq.fu_full::FloatCvt                     0      0.00%     14.58% # attempts to use FU when none available
system.cpu.iq.fu_full::FloatMult                    0      0.00%     14.58% # attempts to use FU when none available
system.cpu.iq.fu_full::FloatMultAcc                 0      0.00%     14.58% # attempts to use FU when none available
system.cpu.iq.fu_full::FloatDiv                     0      0.00%     14.58% # attempts to use FU when none available
system.cpu.iq.fu_full::FloatMisc                    0      0.00%     14.58% # attempts to use FU when none available
system.cpu.iq.fu_full::FloatSqrt                    0      0.00%     14.58% # attempts to use FU when none available
system.cpu.iq.fu_full::SimdAdd                      0      0.00%     14.58% # attempts to use FU when none available
system.cpu.iq.fu_full::SimdAddAcc                   0      0.00%     14.58% # attempts to use FU when none available
system.cpu.iq.fu_full::SimdAlu                      0      0.00%     14.58% # attempts to use FU when none available
system.cpu.iq.fu_full::SimdCmp                      0      0.00%     14.58% # attempts to use FU when none available
system.cpu.iq.fu_full::SimdCvt                      0      0.00%     14.58% # attempts to use FU when none available
system.cpu.iq.fu_full::SimdMisc                     0      0.00%     14.58% # attempts to use FU when none available
system.cpu.iq.fu_full::SimdMult                     0      0.00%     14.58% # attempts to use FU when none available
system.cpu.iq.fu_full::SimdMultAcc                  0      0.00%     14.58% # attempts to use FU when none available
system.cpu.iq.fu_full::SimdShift                    0      0.00%     14.58% # attempts to use FU when none available
system.cpu.iq.fu_full::SimdShiftAcc                 0      0.00%     14.58% # attempts to use FU when none available
system.cpu.iq.fu_full::SimdDiv                      0      0.00%     14.58% # attempts to use FU when none available
system.cpu.iq.fu_full::SimdSqrt                     0      0.00%     14.58% # attempts to use FU when none available
system.cpu.iq.fu_full::SimdFloatAdd                 0      0.00%     14.58% # attempts to use FU when none available
system.cpu.iq.fu_full::SimdFloatAlu                 0      0.00%     14.58% # attempts to use FU when none available
system.cpu.iq.fu_full::SimdFloatCmp                 0      0.00%     14.58% # attempts to use FU when none available
system.cpu.iq.fu_full::SimdFloatCvt                 0      0.00%     14.58% # attempts to use FU when none available
system.cpu.iq.fu_full::SimdFloatDiv                 0      0.00%     14.58% # attempts to use FU when none available
system.cpu.iq.fu_full::SimdFloatMisc                0      0.00%     14.58% # attempts to use FU when none available
system.cpu.iq.fu_full::SimdFloatMult                0      0.00%     14.58% # attempts to use FU when none available
system.cpu.iq.fu_full::SimdFloatMultAcc             0      0.00%     14.58% # attempts to use FU when none available
system.cpu.iq.fu_full::SimdFloatSqrt                0      0.00%     14.58% # attempts to use FU when none available
system.cpu.iq.fu_full::SimdReduceAdd                0      0.00%     14.58% # attempts to use FU when none available
system.cpu.iq.fu_full::SimdReduceAlu                0      0.00%     14.58% # attempts to use FU when none available
system.cpu.iq.fu_full::SimdReduceCmp                0      0.00%     14.58% # attempts to use FU when none available
system.cpu.iq.fu_full::SimdFloatReduceAdd            0      0.00%     14.58% # attempts to use FU when none available
system.cpu.iq.fu_full::SimdFloatReduceCmp            0      0.00%     14.58% # attempts to use FU when none available
system.cpu.iq.fu_full::SimdAes                      0      0.00%     14.58% # attempts to use FU when none available
system.cpu.iq.fu_full::SimdAesMix                   0      0.00%     14.58% # attempts to use FU when none available
system.cpu.iq.fu_full::SimdSha1Hash                 0      0.00%     14.58% # attempts to use FU when none available
system.cpu.iq.fu_full::SimdSha1Hash2                0      0.00%     14.58% # attempts to use FU when none available
system.cpu.iq.fu_full::SimdSha256Hash               0      0.00%     14.58% # attempts to use FU when none available
system.cpu.iq.fu_full::SimdSha256Hash2              0      0.00%     14.58% # attempts to use FU when none available
system.cpu.iq.fu_full::SimdShaSigma2                0      0.00%     14.58% # attempts to use FU when none available
system.cpu.iq.fu_full::SimdShaSigma3                0      0.00%     14.58% # attempts to use FU when none available
system.cpu.iq.fu_full::SimdPredAlu                  0      0.00%     14.58% # attempts to use FU when none available
system.cpu.iq.fu_full::MemRead                 181503     26.44%     41.03% # attempts to use FU when none available
system.cpu.iq.fu_full::MemWrite                404775     58.97%    100.00% # attempts to use FU when none available
system.cpu.iq.fu_full::FloatMemRead                 0      0.00%    100.00% # attempts to use FU when none available
system.cpu.iq.fu_full::FloatMemWrite                0      0.00%    100.00% # attempts to use FU when none available
system.cpu.iq.fu_full::IprAccess                    0      0.00%    100.00% # attempts to use FU when none available
system.cpu.iq.fu_full::InstPrefetch                 0      0.00%    100.00% # attempts to use FU when none available
system.cpu.iq.int_alu_accesses               34620531                       # Number of integer alu accesses
system.cpu.iq.int_inst_queue_reads           96313259                       # Number of integer instruction queue reads
system.cpu.iq.int_inst_queue_wakeup_accesses     33858097                       # Number of integer instruction queue wakeup accesses
system.cpu.iq.int_inst_queue_writes          34352737                       # Number of integer instruction queue writes
system.cpu.iq.iqInstsAdded                   34005601                       # Number of instructions added to the IQ (excludes non-spec)
system.cpu.iq.iqInstsIssued                  33934207                       # Number of instructions issued
system.cpu.iq.iqNonSpecInstsAdded                 119                       # Number of non-speculative instructions added to the IQ
system.cpu.iq.iqSquashedInstsExamined          346972                       # Number of squashed instructions iterated over during squash; mainly for profiling
system.cpu.iq.iqSquashedInstsIssued               488                       # Number of squashed instructions issued
system.cpu.iq.iqSquashedNonSpecRemoved              2                       # Number of squashed non-spec instructions that were removed
system.cpu.iq.iqSquashedOperandsExamined       598424                       # Number of squashed operands that are examined and possibly removed from graph
system.cpu.iq.issued_per_cycle::samples      27757994                       # Number of insts issued each cycle
system.cpu.iq.issued_per_cycle::mean         1.222502                       # Number of insts issued each cycle
system.cpu.iq.issued_per_cycle::stdev        0.855872                       # Number of insts issued each cycle
system.cpu.iq.issued_per_cycle::underflows            0      0.00%      0.00% # Number of insts issued each cycle
system.cpu.iq.issued_per_cycle::0             5660299     20.39%     20.39% # Number of insts issued each cycle
system.cpu.iq.issued_per_cycle::1            12259991     44.17%     64.56% # Number of insts issued each cycle
system.cpu.iq.issued_per_cycle::2             7945395     28.62%     93.18% # Number of insts issued each cycle
system.cpu.iq.issued_per_cycle::3             1785810      6.43%     99.62% # Number of insts issued each cycle
system.cpu.iq.issued_per_cycle::4              106499      0.38%    100.00% # Number of insts issued each cycle
system.cpu.iq.issued_per_cycle::5                   0      0.00%    100.00% # Number of insts issued each cycle
system.cpu.iq.issued_per_cycle::6                   0      0.00%    100.00% # Number of insts issued each cycle
system.cpu.iq.issued_per_cycle::7                   0      0.00%    100.00% # Number of insts issued each cycle
system.cpu.iq.issued_per_cycle::8                   0      0.00%    100.00% # Number of insts issued each cycle
system.cpu.iq.issued_per_cycle::overflows            0      0.00%    100.00% # Number of insts issued each cycle
system.cpu.iq.issued_per_cycle::min_value            0                       # Number of insts issued each cycle
system.cpu.iq.issued_per_cycle::max_value            4                       # Number of insts issued each cycle
system.cpu.iq.issued_per_cycle::total        27757994                       # Number of insts issued each cycle
system.cpu.iq.rate                           1.219924                       # Inst issue rate
system.cpu.iq.vec_alu_accesses                      0                       # Number of vector alu accesses
system.cpu.iq.vec_inst_queue_reads                  0                       # Number of vector instruction queue reads
system.cpu.iq.vec_inst_queue_wakeup_accesses            0                       # Number of vector instruction queue wakeup accesses
system.cpu.iq.vec_inst_queue_writes                 0                       # Number of vector instruction queue writes
system.cpu.itb.accesses                             0                       # DTB accesses
system.cpu.itb.align_faults                         0                       # Number of TLB faults due to alignment restrictions
system.cpu.itb.domain_faults                        0                       # Number of TLB faults due to domain restrictions
system.cpu.itb.flush_entries                        0                       # Number of entries that have been flushed from TLB
system.cpu.itb.flush_tlb                            0                       # Number of times complete TLB was flushed
system.cpu.itb.flush_tlb_asid                       0                       # Number of times TLB was flushed by ASID
system.cpu.itb.flush_tlb_mva                        0                       # Number of times TLB was flushed by MVA
system.cpu.itb.flush_tlb_mva_asid                   0                       # Number of times TLB was flushed by MVA & ASID
system.cpu.itb.hits                                 0                       # DTB hits
system.cpu.itb.inst_accesses                        0                       # ITB inst accesses
system.cpu.itb.inst_hits                            0                       # ITB inst hits
system.cpu.itb.inst_misses                          0                       # ITB inst misses
system.cpu.itb.misses                               0                       # DTB misses
system.cpu.itb.perms_faults                         0                       # Number of TLB faults due to permissions restrictions
system.cpu.itb.prefetch_faults                      0                       # Number of TLB faults due to prefetch
system.cpu.itb.read_accesses                        0                       # DTB read accesses
system.cpu.itb.read_hits                            0                       # DTB read hits
system.cpu.itb.read_misses                          0                       # DTB read misses
system.cpu.itb.stage2_mmu.stage2_tlb.accesses            0                       # DTB accesses
system.cpu.itb.stage2_mmu.stage2_tlb.align_faults            0                       # Number of TLB faults due to alignment restrictions
system.cpu.itb.stage2_mmu.stage2_tlb.domain_faults            0                       # Number of TLB faults due to domain restrictions
system.cpu.itb.stage2_mmu.stage2_tlb.flush_entries            0                       # Number of entries that have been flushed from TLB
system.cpu.itb.stage2_mmu.stage2_tlb.flush_tlb            0                       # Number of times complete TLB was flushed
system.cpu.itb.stage2_mmu.stage2_tlb.flush_tlb_asid            0                       # Number of times TLB was flushed by ASID
system.cpu.itb.stage2_mmu.stage2_tlb.flush_tlb_mva            0                       # Number of times TLB was flushed by MVA
system.cpu.itb.stage2_mmu.stage2_tlb.flush_tlb_mva_asid            0                       # Number of times TLB was flushed by MVA & ASID
system.cpu.itb.stage2_mmu.stage2_tlb.hits            0                       # DTB hits
system.cpu.itb.stage2_mmu.stage2_tlb.inst_accesses            0                       # ITB inst accesses
system.cpu.itb.stage2_mmu.stage2_tlb.inst_hits            0                       # ITB inst hits
system.cpu.itb.stage2_mmu.stage2_tlb.inst_misses            0                       # ITB inst misses
system.cpu.itb.stage2_mmu.stage2_tlb.misses            0                       # DTB misses
system.cpu.itb.stage2_mmu.stage2_tlb.perms_faults            0                       # Number of TLB faults due to permissions restrictions
system.cpu.itb.stage2_mmu.stage2_tlb.prefetch_faults            0                       # Number of TLB faults due to prefetch
system.cpu.itb.stage2_mmu.stage2_tlb.read_accesses            0                       # DTB read accesses
system.cpu.itb.stage2_mmu.stage2_tlb.read_hits            0                       # DTB read hits
system.cpu.itb.stage2_mmu.stage2_tlb.read_misses            0                       # DTB read misses
system.cpu.itb.stage2_mmu.stage2_tlb.walker.walkRequestOrigin_Requested::Data            0                       # Table walker requests started/completed, data/inst
system.cpu.itb.stage2_mmu.stage2_tlb.walker.walkRequestOrigin_Requested::Inst            0                       # Table walker requests started/completed, data/inst
system.cpu.itb.stage2_mmu.stage2_tlb.walker.walkRequestOrigin_Requested::total            0                       # Table walker requests started/completed, data/inst
system.cpu.itb.stage2_mmu.stage2_tlb.walker.walkRequestOrigin_Completed::Data            0                       # Table walker requests started/completed, data/inst
system.cpu.itb.stage2_mmu.stage2_tlb.walker.walkRequestOrigin_Completed::Inst            0                       # Table walker requests started/completed, data/inst
system.cpu.itb.stage2_mmu.stage2_tlb.walker.walkRequestOrigin_Completed::total            0                       # Table walker requests started/completed, data/inst
system.cpu.itb.stage2_mmu.stage2_tlb.walker.walkRequestOrigin::total            0                       # Table walker requests started/completed, data/inst
system.cpu.itb.stage2_mmu.stage2_tlb.walker.walks            0                       # Table walker walks requested
system.cpu.itb.stage2_mmu.stage2_tlb.write_accesses            0                       # DTB write accesses
system.cpu.itb.stage2_mmu.stage2_tlb.write_hits            0                       # DTB write hits
system.cpu.itb.stage2_mmu.stage2_tlb.write_misses            0                       # DTB write misses
system.cpu.itb.walker.walkRequestOrigin_Requested::Data            0                       # Table walker requests started/completed, data/inst
system.cpu.itb.walker.walkRequestOrigin_Requested::Inst            0                       # Table walker requests started/completed, data/inst
system.cpu.itb.walker.walkRequestOrigin_Requested::total            0                       # Table walker requests started/completed, data/inst
system.cpu.itb.walker.walkRequestOrigin_Completed::Data            0                       # Table walker requests started/completed, data/inst
system.cpu.itb.walker.walkRequestOrigin_Completed::Inst            0                       # Table walker requests started/completed, data/inst
system.cpu.itb.walker.walkRequestOrigin_Completed::total            0                       # Table walker requests started/completed, data/inst
system.cpu.itb.walker.walkRequestOrigin::total            0                       # Table walker requests started/completed, data/inst
system.cpu.itb.walker.walks                         0                       # Table walker walks requested
system.cpu.itb.write_accesses                       0                       # DTB write accesses
system.cpu.itb.write_hits                           0                       # DTB write hits
system.cpu.itb.write_misses                         0                       # DTB write misses
system.cpu.memDep0.conflictingLoads             19671                       # Number of conflicting loads.
system.cpu.memDep0.conflictingStores               14                       # Number of conflicting stores.
system.cpu.memDep0.insertedLoads              8493820                       # Number of loads inserted to the mem dependence unit.
system.cpu.memDep0.insertedStores             3900194                       # Number of stores inserted to the mem dependence unit.
system.cpu.misc_regfile_reads                12298860                       # number of misc regfile reads
system.cpu.misc_regfile_writes                    206                       # number of misc regfile writes
system.cpu.numCycles                         27816651                       # number of cpu cycles simulated
system.cpu.numWorkItemsCompleted                    0                       # number of work items this cpu completed
system.cpu.numWorkItemsStarted                      0                       # number of work items this cpu started
system.cpu.rename.BlockCycles                   23663                       # Number of cycles rename is blocking
system.cpu.rename.CommittedMaps              29927366                       # Number of HB maps that are committed
system.cpu.rename.IdleCycles                 10776321                       # Number of cycles rename is idle
system.cpu.rename.LQFullEvents                 294800                       # Number of times rename has blocked due to LQ full
system.cpu.rename.ROBFullEvents                    11                       # Number of times rename has blocked due to ROB full
system.cpu.rename.RenameLookups             147930677                       # Number of register rename lookups that rename has made
system.cpu.rename.RenamedInsts               34029142                       # Number of instructions processed by rename
system.cpu.rename.RenamedOperands            30238482                       # Number of destination operands rename has renamed
system.cpu.rename.RunCycles                  16517672                       # Number of cycles rename is running
system.cpu.rename.SQFullEvents                  83468                       # Number of times rename has blocked due to SQ full
system.cpu.rename.SquashCycles                  32235                       # Number of cycles rename is squashing
system.cpu.rename.SquashedInsts                 71625                       # Number of squashed instructions processed by rename
system.cpu.rename.UnblockCycles                405256                       # Number of cycles rename is unblocking
system.cpu.rename.UndoneMaps                   311115                       # Number of HB maps that are undone due to squashing
system.cpu.rename.int_rename_lookups         33447991                       # Number of integer rename lookups
system.cpu.rename.serializeStallCycles           2847                       # count of cycles rename stalled for serializing inst
system.cpu.rename.serializingInsts                 72                       # count of serializing insts renamed
system.cpu.rename.skidInsts                    125819                       # count of insts added to the skid buffer
system.cpu.rename.tempSerializingInsts             66                       # count of temporary serializing insts renamed
system.cpu.rename.vec_rename_lookups               32                       # Number of vector rename lookups
system.cpu.rob.rob_reads                     61362263                       # The number of ROB reads
system.cpu.rob.rob_writes                    67912469                       # The number of ROB writes
system.cpu.timesIdled                             630                       # Number of times that the entire CPU went into an idle state and unscheduled itself
system.cpu.vec_regfile_reads                       32                       # number of vector regfile reads
system.cpu.workload.numSyscalls                    13                       # Number of system calls
system.membus.snoop_filter.hit_multi_requests            0                       # Number of requests hitting in the snoop filter with multiple (>1) holders of the requested data.
system.membus.snoop_filter.hit_multi_snoops            0                       # Number of snoops hitting in the snoop filter with multiple (>1) holders of the requested data.
system.membus.snoop_filter.hit_single_requests            0                       # Number of requests hitting in the snoop filter with a single holder of the requested data.
system.membus.snoop_filter.hit_single_snoops            0                       # Number of snoops hitting in the snoop filter with a single holder of the requested data.
system.membus.snoop_filter.tot_requests          2007                       # Total number of requests made to the snoop filter.
system.membus.snoop_filter.tot_snoops               0                       # Total number of snoops made to the snoop filter.
system.tol2bus.snoop_filter.hit_multi_requests           37                       # Number of requests hitting in the snoop filter with multiple (>1) holders of the requested data.
system.tol2bus.snoop_filter.hit_multi_snoops            0                       # Number of snoops hitting in the snoop filter with multiple (>1) holders of the requested data.
system.tol2bus.snoop_filter.hit_single_requests        34564                       # Number of requests hitting in the snoop filter with a single holder of the requested data.
system.tol2bus.snoop_filter.hit_single_snoops            0                       # Number of snoops hitting in the snoop filter with a single holder of the requested data.
system.tol2bus.snoop_filter.tot_requests        70102                       # Total number of requests made to the snoop filter.
system.tol2bus.snoop_filter.tot_snoops              0                       # Total number of snoops made to the snoop filter.
system.membus.pwrStateResidencyTicks::UNDEFINED  17385406250                       # Cumulative time (in ticks) in various power states
system.membus.trans_dist::ReadResp                872                       # Transaction distribution
system.membus.trans_dist::ReadExReq              1134                       # Transaction distribution
system.membus.trans_dist::ReadExResp             1134                       # Transaction distribution
system.membus.trans_dist::ReadSharedReq           873                       # Transaction distribution
system.membus.pkt_count_system.l2.mem_side::system.mem_ctrls.port         4013                       # Packet count per connected master and slave (bytes)
system.membus.pkt_count::total                   4013                       # Packet count per connected master and slave (bytes)
system.membus.pkt_size_system.l2.mem_side::system.mem_ctrls.port       128384                       # Cumulative packet size per connected master and slave (bytes)
system.membus.pkt_size::total                  128384                       # Cumulative packet size per connected master and slave (bytes)
system.membus.snoops                                0                       # Total snoops (count)
system.membus.snoopTraffic                          0                       # Total snoop traffic (bytes)
system.membus.snoop_fanout::samples              2007                       # Request fanout histogram
system.membus.snoop_fanout::mean                    0                       # Request fanout histogram
system.membus.snoop_fanout::stdev                   0                       # Request fanout histogram
system.membus.snoop_fanout::underflows              0      0.00%      0.00% # Request fanout histogram
system.membus.snoop_fanout::0                    2007    100.00%    100.00% # Request fanout histogram
system.membus.snoop_fanout::1                       0      0.00%    100.00% # Request fanout histogram
system.membus.snoop_fanout::overflows               0      0.00%    100.00% # Request fanout histogram
system.membus.snoop_fanout::min_value               0                       # Request fanout histogram
system.membus.snoop_fanout::max_value               0                       # Request fanout histogram
system.membus.snoop_fanout::total                2007                       # Request fanout histogram
system.membus.respLayer1.occupancy           10610875                       # Layer occupancy (ticks)
system.membus.respLayer1.utilization              0.1                       # Layer utilization (%)
system.membus.reqLayer0.occupancy             2915750                       # Layer occupancy (ticks)
system.membus.reqLayer0.utilization               0.0                       # Layer utilization (%)
system.tol2bus.pwrStateResidencyTicks::UNDEFINED  17385406250                       # Cumulative time (in ticks) in various power states
system.tol2bus.trans_dist::ReadResp             26295                       # Transaction distribution
system.tol2bus.trans_dist::WritebackDirty        34161                       # Transaction distribution
system.tol2bus.trans_dist::WritebackClean          296                       # Transaction distribution
system.tol2bus.trans_dist::CleanEvict              91                       # Transaction distribution
system.tol2bus.trans_dist::ReadExReq             9257                       # Transaction distribution
system.tol2bus.trans_dist::ReadExResp            9257                       # Transaction distribution
system.tol2bus.trans_dist::ReadCleanReq           789                       # Transaction distribution
system.tol2bus.trans_dist::ReadSharedReq        25508                       # Transaction distribution
system.tol2bus.pkt_count_system.cpu.icache.mem_side::system.l2.cpu_side         1873                       # Packet count per connected master and slave (bytes)
system.tol2bus.pkt_count_system.cpu.dcache.mem_side::system.l2.cpu_side       103781                       # Packet count per connected master and slave (bytes)
system.tol2bus.pkt_count::total                105654                       # Packet count per connected master and slave (bytes)
system.tol2bus.pkt_size_system.cpu.icache.mem_side::system.l2.cpu_side        69376                       # Cumulative packet size per connected master and slave (bytes)
system.tol2bus.pkt_size_system.cpu.dcache.mem_side::system.l2.cpu_side      4411200                       # Cumulative packet size per connected master and slave (bytes)
system.tol2bus.pkt_size::total                4480576                       # Cumulative packet size per connected master and slave (bytes)
system.tol2bus.snoops                               0                       # Total snoops (count)
system.tol2bus.snoopTraffic                         0                       # Total snoop traffic (bytes)
system.tol2bus.snoop_fanout::samples            35554                       # Request fanout histogram
system.tol2bus.snoop_fanout::mean            0.001491                       # Request fanout histogram
system.tol2bus.snoop_fanout::stdev           0.038581                       # Request fanout histogram
system.tol2bus.snoop_fanout::underflows             0      0.00%      0.00% # Request fanout histogram
system.tol2bus.snoop_fanout::0                  35501     99.85%     99.85% # Request fanout histogram
system.tol2bus.snoop_fanout::1                     53      0.15%    100.00% # Request fanout histogram
system.tol2bus.snoop_fanout::2                      0      0.00%    100.00% # Request fanout histogram
system.tol2bus.snoop_fanout::overflows              0      0.00%    100.00% # Request fanout histogram
system.tol2bus.snoop_fanout::min_value              0                       # Request fanout histogram
system.tol2bus.snoop_fanout::max_value              1                       # Request fanout histogram
system.tol2bus.snoop_fanout::total              35554                       # Request fanout histogram
system.tol2bus.reqLayer0.occupancy           86885000                       # Layer occupancy (ticks)
system.tol2bus.reqLayer0.utilization              0.5                       # Layer utilization (%)
system.tol2bus.respLayer1.occupancy          65186868                       # Layer occupancy (ticks)
system.tol2bus.respLayer1.utilization             0.4                       # Layer utilization (%)
system.tol2bus.respLayer0.occupancy           1478748                       # Layer occupancy (ticks)
system.tol2bus.respLayer0.utilization             0.0                       # Layer utilization (%)
system.voltage_domain.voltage                       1                       # Voltage in Volts
system.clk_domain.clock                          1000                       # Clock period in ticks
system.l2.pwrStateResidencyTicks::UNDEFINED  17385406250                       # Cumulative time (in ticks) in various power states
system.l2.demand_hits::.cpu.inst                   56                       # number of demand (read+write) hits
system.l2.demand_hits::.cpu.data                33482                       # number of demand (read+write) hits
system.l2.demand_hits::total                    33538                       # number of demand (read+write) hits
system.l2.overall_hits::.cpu.inst                  56                       # number of overall hits
system.l2.overall_hits::.cpu.data               33482                       # number of overall hits
system.l2.overall_hits::total                   33538                       # number of overall hits
system.l2.demand_misses::.cpu.inst                733                       # number of demand (read+write) misses
system.l2.demand_misses::.cpu.data               1283                       # number of demand (read+write) misses
system.l2.demand_misses::total                   2016                       # number of demand (read+write) misses
system.l2.overall_misses::.cpu.inst               733                       # number of overall misses
system.l2.overall_misses::.cpu.data              1283                       # number of overall misses
system.l2.overall_misses::total                  2016                       # number of overall misses
system.l2.demand_miss_latency::.cpu.inst     60460625                       # number of demand (read+write) miss cycles
system.l2.demand_miss_latency::.cpu.data    106398750                       # number of demand (read+write) miss cycles
system.l2.demand_miss_latency::total        166859375                       # number of demand (read+write) miss cycles
system.l2.overall_miss_latency::.cpu.inst     60460625                       # number of overall miss cycles
system.l2.overall_miss_latency::.cpu.data    106398750                       # number of overall miss cycles
system.l2.overall_miss_latency::total       166859375                       # number of overall miss cycles
system.l2.demand_accesses::.cpu.inst              789                       # number of demand (read+write) accesses
system.l2.demand_accesses::.cpu.data            34765                       # number of demand (read+write) accesses
system.l2.demand_accesses::total                35554                       # number of demand (read+write) accesses
system.l2.overall_accesses::.cpu.inst             789                       # number of overall (read+write) accesses
system.l2.overall_accesses::.cpu.data           34765                       # number of overall (read+write) accesses
system.l2.overall_accesses::total               35554                       # number of overall (read+write) accesses
system.l2.demand_miss_rate::.cpu.inst        0.929024                       # miss rate for demand accesses
system.l2.demand_miss_rate::.cpu.data        0.036905                       # miss rate for demand accesses
system.l2.demand_miss_rate::total            0.056702                       # miss rate for demand accesses
system.l2.overall_miss_rate::.cpu.inst       0.929024                       # miss rate for overall accesses
system.l2.overall_miss_rate::.cpu.data       0.036905                       # miss rate for overall accesses
system.l2.overall_miss_rate::total           0.056702                       # miss rate for overall accesses
system.l2.demand_avg_miss_latency::.cpu.inst 82483.799454                       # average overall miss latency
system.l2.demand_avg_miss_latency::.cpu.data 82929.657054                       # average overall miss latency
system.l2.demand_avg_miss_latency::total 82767.547123                       # average overall miss latency
system.l2.overall_avg_miss_latency::.cpu.inst 82483.799454                       # average overall miss latency
system.l2.overall_avg_miss_latency::.cpu.data 82929.657054                       # average overall miss latency
system.l2.overall_avg_miss_latency::total 82767.547123                       # average overall miss latency
system.l2.blocked_cycles::no_mshrs                  0                       # number of cycles access was blocked
system.l2.blocked_cycles::no_targets                0                       # number of cycles access was blocked
system.l2.blocked::no_mshrs                         0                       # number of cycles access was blocked
system.l2.blocked::no_targets                       0                       # number of cycles access was blocked
system.l2.avg_blocked_cycles::no_mshrs            nan                       # average number of cycles each access was blocked
system.l2.avg_blocked_cycles::no_targets          nan                       # average number of cycles each access was blocked
system.l2.demand_mshr_hits::.cpu.inst               2                       # number of demand (read+write) MSHR hits
system.l2.demand_mshr_hits::.cpu.data               7                       # number of demand (read+write) MSHR hits
system.l2.demand_mshr_hits::total                   9                       # number of demand (read+write) MSHR hits
system.l2.overall_mshr_hits::.cpu.inst              2                       # number of overall MSHR hits
system.l2.overall_mshr_hits::.cpu.data              7                       # number of overall MSHR hits
system.l2.overall_mshr_hits::total                  9                       # number of overall MSHR hits
system.l2.demand_mshr_misses::.cpu.inst           731                       # number of demand (read+write) MSHR misses
system.l2.demand_mshr_misses::.cpu.data          1276                       # number of demand (read+write) MSHR misses
system.l2.demand_mshr_misses::total              2007                       # number of demand (read+write) MSHR misses
system.l2.overall_mshr_misses::.cpu.inst          731                       # number of overall MSHR misses
system.l2.overall_mshr_misses::.cpu.data         1276                       # number of overall MSHR misses
system.l2.overall_mshr_misses::total             2007                       # number of overall MSHR misses
system.l2.demand_mshr_miss_latency::.cpu.inst     50986375                       # number of demand (read+write) MSHR miss cycles
system.l2.demand_mshr_miss_latency::.cpu.data     89553000                       # number of demand (read+write) MSHR miss cycles
system.l2.demand_mshr_miss_latency::total    140539375                       # number of demand (read+write) MSHR miss cycles
system.l2.overall_mshr_miss_latency::.cpu.inst     50986375                       # number of overall MSHR miss cycles
system.l2.overall_mshr_miss_latency::.cpu.data     89553000                       # number of overall MSHR miss cycles
system.l2.overall_mshr_miss_latency::total    140539375                       # number of overall MSHR miss cycles
system.l2.demand_mshr_miss_rate::.cpu.inst     0.926489                       # mshr miss rate for demand accesses
system.l2.demand_mshr_miss_rate::.cpu.data     0.036704                       # mshr miss rate for demand accesses
system.l2.demand_mshr_miss_rate::total       0.056449                       # mshr miss rate for demand accesses
system.l2.overall_mshr_miss_rate::.cpu.inst     0.926489                       # mshr miss rate for overall accesses
system.l2.overall_mshr_miss_rate::.cpu.data     0.036704                       # mshr miss rate for overall accesses
system.l2.overall_mshr_miss_rate::total      0.056449                       # mshr miss rate for overall accesses
system.l2.demand_avg_mshr_miss_latency::.cpu.inst 69748.803010                       # average overall mshr miss latency
system.l2.demand_avg_mshr_miss_latency::.cpu.data 70182.601881                       # average overall mshr miss latency
system.l2.demand_avg_mshr_miss_latency::total 70024.601395                       # average overall mshr miss latency
system.l2.overall_avg_mshr_miss_latency::.cpu.inst 69748.803010                       # average overall mshr miss latency
system.l2.overall_avg_mshr_miss_latency::.cpu.data 70182.601881                       # average overall mshr miss latency
system.l2.overall_avg_mshr_miss_latency::total 70024.601395                       # average overall mshr miss latency
system.l2.replacements                              0                       # number of replacements
system.l2.WritebackDirty_hits::.writebacks        34161                       # number of WritebackDirty hits
system.l2.WritebackDirty_hits::total            34161                       # number of WritebackDirty hits
system.l2.WritebackDirty_accesses::.writebacks        34161                       # number of WritebackDirty accesses(hits+misses)
system.l2.WritebackDirty_accesses::total        34161                       # number of WritebackDirty accesses(hits+misses)
system.l2.WritebackClean_hits::.writebacks          281                       # number of WritebackClean hits
system.l2.WritebackClean_hits::total              281                       # number of WritebackClean hits
system.l2.WritebackClean_accesses::.writebacks          281                       # number of WritebackClean accesses(hits+misses)
system.l2.WritebackClean_accesses::total          281                       # number of WritebackClean accesses(hits+misses)
system.l2.ReadExReq_hits::.cpu.data              8123                       # number of ReadExReq hits
system.l2.ReadExReq_hits::total                  8123                       # number of ReadExReq hits
system.l2.ReadExReq_misses::.cpu.data            1134                       # number of ReadExReq misses
system.l2.ReadExReq_misses::total                1134                       # number of ReadExReq misses
system.l2.ReadExReq_miss_latency::.cpu.data     92970625                       # number of ReadExReq miss cycles
system.l2.ReadExReq_miss_latency::total      92970625                       # number of ReadExReq miss cycles
system.l2.ReadExReq_accesses::.cpu.data          9257                       # number of ReadExReq accesses(hits+misses)
system.l2.ReadExReq_accesses::total              9257                       # number of ReadExReq accesses(hits+misses)
system.l2.ReadExReq_miss_rate::.cpu.data     0.122502                       # miss rate for ReadExReq accesses
system.l2.ReadExReq_miss_rate::total         0.122502                       # miss rate for ReadExReq accesses
system.l2.ReadExReq_avg_miss_latency::.cpu.data 81984.678131                       # average ReadExReq miss latency
system.l2.ReadExReq_avg_miss_latency::total 81984.678131                       # average ReadExReq miss latency
system.l2.ReadExReq_mshr_misses::.cpu.data         1134                       # number of ReadExReq MSHR misses
system.l2.ReadExReq_mshr_misses::total           1134                       # number of ReadExReq MSHR misses
system.l2.ReadExReq_mshr_miss_latency::.cpu.data     78491750                       # number of ReadExReq MSHR miss cycles
system.l2.ReadExReq_mshr_miss_latency::total     78491750                       # number of ReadExReq MSHR miss cycles
system.l2.ReadExReq_mshr_miss_rate::.cpu.data     0.122502                       # mshr miss rate for ReadExReq accesses
system.l2.ReadExReq_mshr_miss_rate::total     0.122502                       # mshr miss rate for ReadExReq accesses
system.l2.ReadExReq_avg_mshr_miss_latency::.cpu.data 69216.710758                       # average ReadExReq mshr miss latency
system.l2.ReadExReq_avg_mshr_miss_latency::total 69216.710758                       # average ReadExReq mshr miss latency
system.l2.ReadCleanReq_hits::.cpu.inst             56                       # number of ReadCleanReq hits
system.l2.ReadCleanReq_hits::total                 56                       # number of ReadCleanReq hits
system.l2.ReadCleanReq_misses::.cpu.inst          733                       # number of ReadCleanReq misses
system.l2.ReadCleanReq_misses::total              733                       # number of ReadCleanReq misses
system.l2.ReadCleanReq_miss_latency::.cpu.inst     60460625                       # number of ReadCleanReq miss cycles
system.l2.ReadCleanReq_miss_latency::total     60460625                       # number of ReadCleanReq miss cycles
system.l2.ReadCleanReq_accesses::.cpu.inst          789                       # number of ReadCleanReq accesses(hits+misses)
system.l2.ReadCleanReq_accesses::total            789                       # number of ReadCleanReq accesses(hits+misses)
system.l2.ReadCleanReq_miss_rate::.cpu.inst     0.929024                       # miss rate for ReadCleanReq accesses
system.l2.ReadCleanReq_miss_rate::total      0.929024                       # miss rate for ReadCleanReq accesses
system.l2.ReadCleanReq_avg_miss_latency::.cpu.inst 82483.799454                       # average ReadCleanReq miss latency
system.l2.ReadCleanReq_avg_miss_latency::total 82483.799454                       # average ReadCleanReq miss latency
system.l2.ReadCleanReq_mshr_hits::.cpu.inst            2                       # number of ReadCleanReq MSHR hits
system.l2.ReadCleanReq_mshr_hits::total             2                       # number of ReadCleanReq MSHR hits
system.l2.ReadCleanReq_mshr_misses::.cpu.inst          731                       # number of ReadCleanReq MSHR misses
system.l2.ReadCleanReq_mshr_misses::total          731                       # number of ReadCleanReq MSHR misses
system.l2.ReadCleanReq_mshr_miss_latency::.cpu.inst     50986375                       # number of ReadCleanReq MSHR miss cycles
system.l2.ReadCleanReq_mshr_miss_latency::total     50986375                       # number of ReadCleanReq MSHR miss cycles
system.l2.ReadCleanReq_mshr_miss_rate::.cpu.inst     0.926489                       # mshr miss rate for ReadCleanReq accesses
system.l2.ReadCleanReq_mshr_miss_rate::total     0.926489                       # mshr miss rate for ReadCleanReq accesses
system.l2.ReadCleanReq_avg_mshr_miss_latency::.cpu.inst 69748.803010                       # average ReadCleanReq mshr miss latency
[...]
system.cpu.icache.ReadReq_accesses::total     10865432                       # number of ReadReq accesses(hits+misses)
system.cpu.icache.ReadReq_miss_rate::.cpu.inst     0.000088                       # miss rate for ReadReq accesses
system.cpu.icache.ReadReq_miss_rate::total     0.000088                       # miss rate for ReadReq accesses
system.cpu.icache.ReadReq_avg_miss_latency::.cpu.inst 76535.993717                       # average ReadReq miss latency
system.cpu.icache.ReadReq_avg_miss_latency::total 76535.993717                       # average ReadReq miss latency
system.cpu.icache.ReadReq_mshr_hits::.cpu.inst          166                       # number of ReadReq MSHR hits
system.cpu.icache.ReadReq_mshr_hits::total          166                       # number of ReadReq MSHR hits
system.cpu.icache.ReadReq_mshr_misses::.cpu.inst          789                       # number of ReadReq MSHR misses
system.cpu.icache.ReadReq_mshr_misses::total          789                       # number of ReadReq MSHR misses
system.cpu.icache.ReadReq_mshr_miss_latency::.cpu.inst     62693750                       # number of ReadReq MSHR miss cycles
system.cpu.icache.ReadReq_mshr_miss_latency::total     62693750                       # number of ReadReq MSHR miss cycles
system.cpu.icache.ReadReq_mshr_miss_rate::.cpu.inst     0.000073                       # mshr miss rate for ReadReq accesses
system.cpu.icache.ReadReq_mshr_miss_rate::total     0.000073                       # mshr miss rate for ReadReq accesses
system.cpu.icache.ReadReq_avg_mshr_miss_latency::.cpu.inst 79459.759189                       # average ReadReq mshr miss latency
system.cpu.icache.ReadReq_avg_mshr_miss_latency::total 79459.759189                       # average ReadReq mshr miss latency
system.cpu.icache.tags.pwrStateResidencyTicks::UNDEFINED  17385406250                       # Cumulative time (in ticks) in various power states
system.cpu.icache.tags.tagsinuse           415.396482                       # Cycle average of tags in use
system.cpu.icache.tags.total_refs            10865265                       # Total number of references to valid blocks.
system.cpu.icache.tags.sampled_refs               788                       # Sample count of references to valid blocks.
system.cpu.icache.tags.avg_refs          13788.407360                       # Average number of references to valid blocks.
system.cpu.icache.tags.warmup_cycle             91250                       # Cycle when the warmup percentage was hit.
system.cpu.icache.tags.occ_blocks::.cpu.inst   415.396482                       # Average occupied blocks per requestor
system.cpu.icache.tags.occ_percent::.cpu.inst     0.811321                       # Average percentage of cache occupancy
system.cpu.icache.tags.occ_percent::total     0.811321                       # Average percentage of cache occupancy
system.cpu.icache.tags.occ_task_id_blocks::1024          492                       # Occupied blocks per task id
system.cpu.icache.tags.age_task_id_blocks_1024::0           77                       # Occupied blocks per task id
system.cpu.icache.tags.age_task_id_blocks_1024::1          182                       # Occupied blocks per task id
system.cpu.icache.tags.age_task_id_blocks_1024::4          233                       # Occupied blocks per task id
system.cpu.icache.tags.occ_task_id_percent::1024     0.960938                       # Percentage of cache occupancy per task id
system.cpu.icache.tags.tag_accesses          43462516                       # Number of tag accesses
system.cpu.icache.tags.data_accesses         43462516                       # Number of data accesses
system.cpu.dtb.walker.pwrStateResidencyTicks::UNDEFINED  17385406250                       # Cumulative time (in ticks) in various power states
system.cpu.dtb.stage2_mmu.stage2_tlb.walker.pwrStateResidencyTicks::UNDEFINED  17385406250                       # Cumulative time (in ticks) in various power states
system.cpu.itb.walker.pwrStateResidencyTicks::UNDEFINED  17385406250                       # Cumulative time (in ticks) in various power states
system.cpu.itb.stage2_mmu.stage2_tlb.walker.pwrStateResidencyTicks::UNDEFINED  17385406250                       # Cumulative time (in ticks) in various power states
system.cpu.dcache.pwrStateResidencyTicks::UNDEFINED  17385406250                       # Cumulative time (in ticks) in various power states
system.cpu.dcache.demand_hits::.cpu.data     12096229                       # number of demand (read+write) hits
system.cpu.dcache.demand_hits::total         12096229                       # number of demand (read+write) hits
system.cpu.dcache.overall_hits::.cpu.data     12096229                       # number of overall hits
system.cpu.dcache.overall_hits::total        12096229                       # number of overall hits
system.cpu.dcache.demand_misses::.cpu.data        43005                       # number of demand (read+write) misses
system.cpu.dcache.demand_misses::total          43005                       # number of demand (read+write) misses
system.cpu.dcache.overall_misses::.cpu.data        43005                       # number of overall misses
system.cpu.dcache.overall_misses::total         43005                       # number of overall misses
system.cpu.dcache.demand_miss_latency::.cpu.data    780031874                       # number of demand (read+write) miss cycles
system.cpu.dcache.demand_miss_latency::total    780031874                       # number of demand (read+write) miss cycles
system.cpu.dcache.overall_miss_latency::.cpu.data    780031874                       # number of overall miss cycles
system.cpu.dcache.overall_miss_latency::total    780031874                       # number of overall miss cycles
system.cpu.dcache.demand_accesses::.cpu.data     12139234                       # number of demand (read+write) accesses
system.cpu.dcache.demand_accesses::total     12139234                       # number of demand (read+write) accesses
system.cpu.dcache.overall_accesses::.cpu.data     12139234                       # number of overall (read+write) accesses
system.cpu.dcache.overall_accesses::total     12139234                       # number of overall (read+write) accesses
system.cpu.dcache.demand_miss_rate::.cpu.data     0.003543                       # miss rate for demand accesses
system.cpu.dcache.demand_miss_rate::total     0.003543                       # miss rate for demand accesses
system.cpu.dcache.overall_miss_rate::.cpu.data     0.003543                       # miss rate for overall accesses
system.cpu.dcache.overall_miss_rate::total     0.003543                       # miss rate for overall accesses
system.cpu.dcache.demand_avg_miss_latency::.cpu.data 18138.167050                       # average overall miss latency
system.cpu.dcache.demand_avg_miss_latency::total 18138.167050                       # average overall miss latency
system.cpu.dcache.overall_avg_miss_latency::.cpu.data 18138.167050                       # average overall miss latency
system.cpu.dcache.overall_avg_miss_latency::total 18138.167050                       # average overall miss latency
system.cpu.dcache.blocked_cycles::no_mshrs           53                       # number of cycles access was blocked
system.cpu.dcache.blocked_cycles::no_targets            0                       # number of cycles access was blocked
system.cpu.dcache.blocked::no_mshrs                 3                       # number of cycles access was blocked
system.cpu.dcache.blocked::no_targets               0                       # number of cycles access was blocked
system.cpu.dcache.avg_blocked_cycles::no_mshrs    17.666667                       # average number of cycles each access was blocked
system.cpu.dcache.avg_blocked_cycles::no_targets          nan                       # average number of cycles each access was blocked
system.cpu.dcache.writebacks::.writebacks        34161                       # number of writebacks
system.cpu.dcache.writebacks::total             34161                       # number of writebacks
system.cpu.dcache.demand_mshr_hits::.cpu.data         8240                       # number of demand (read+write) MSHR hits
system.cpu.dcache.demand_mshr_hits::total         8240                       # number of demand (read+write) MSHR hits
system.cpu.dcache.overall_mshr_hits::.cpu.data         8240                       # number of overall MSHR hits
system.cpu.dcache.overall_mshr_hits::total         8240                       # number of overall MSHR hits
system.cpu.dcache.demand_mshr_misses::.cpu.data        34765                       # number of demand (read+write) MSHR misses
system.cpu.dcache.demand_mshr_misses::total        34765                       # number of demand (read+write) MSHR misses
system.cpu.dcache.overall_mshr_misses::.cpu.data        34765                       # number of overall MSHR misses
system.cpu.dcache.overall_mshr_misses::total        34765                       # number of overall MSHR misses
system.cpu.dcache.demand_mshr_miss_latency::.cpu.data    611260625                       # number of demand (read+write) MSHR miss cycles
system.cpu.dcache.demand_mshr_miss_latency::total    611260625                       # number of demand (read+write) MSHR miss cycles
system.cpu.dcache.overall_mshr_miss_latency::.cpu.data    611260625                       # number of overall MSHR miss cycles
system.cpu.dcache.overall_mshr_miss_latency::total    611260625                       # number of overall MSHR miss cycles
system.cpu.dcache.demand_mshr_miss_rate::.cpu.data     0.002864                       # mshr miss rate for demand accesses
system.cpu.dcache.demand_mshr_miss_rate::total     0.002864                       # mshr miss rate for demand accesses
system.cpu.dcache.overall_mshr_miss_rate::.cpu.data     0.002864                       # mshr miss rate for overall accesses
system.cpu.dcache.overall_mshr_miss_rate::total     0.002864                       # mshr miss rate for overall accesses
system.cpu.dcache.demand_avg_mshr_miss_latency::.cpu.data 17582.644182                       # average overall mshr miss latency
system.cpu.dcache.demand_avg_mshr_miss_latency::total 17582.644182                       # average overall mshr miss latency
system.cpu.dcache.overall_avg_mshr_miss_latency::.cpu.data 17582.644182                       # average overall mshr miss latency
system.cpu.dcache.overall_avg_mshr_miss_latency::total 17582.644182                       # average overall mshr miss latency
system.cpu.dcache.replacements                  34252                       # number of replacements
system.cpu.dcache.ReadReq_hits::.cpu.data      8361925                       # number of ReadReq hits
system.cpu.dcache.ReadReq_hits::total         8361925                       # number of ReadReq hits
system.cpu.dcache.ReadReq_misses::.cpu.data        30214                       # number of ReadReq misses
system.cpu.dcache.ReadReq_misses::total         30214                       # number of ReadReq misses
system.cpu.dcache.ReadReq_miss_latency::.cpu.data    504472500                       # number of ReadReq miss cycles
system.cpu.dcache.ReadReq_miss_latency::total    504472500                       # number of ReadReq miss cycles
system.cpu.dcache.ReadReq_accesses::.cpu.data      8392139                       # number of ReadReq accesses(hits+misses)
system.cpu.dcache.ReadReq_accesses::total      8392139                       # number of ReadReq accesses(hits+misses)
system.cpu.dcache.ReadReq_miss_rate::.cpu.data     0.003600                       # miss rate for ReadReq accesses
system.cpu.dcache.ReadReq_miss_rate::total     0.003600                       # miss rate for ReadReq accesses
system.cpu.dcache.ReadReq_avg_miss_latency::.cpu.data 16696.647250                       # average ReadReq miss latency
system.cpu.dcache.ReadReq_avg_miss_latency::total 16696.647250                       # average ReadReq miss latency
system.cpu.dcache.ReadReq_mshr_hits::.cpu.data         4706                       # number of ReadReq MSHR hits
system.cpu.dcache.ReadReq_mshr_hits::total         4706                       # number of ReadReq MSHR hits
system.cpu.dcache.ReadReq_mshr_misses::.cpu.data        25508                       # number of ReadReq MSHR misses
system.cpu.dcache.ReadReq_mshr_misses::total        25508                       # number of ReadReq MSHR misses
system.cpu.dcache.ReadReq_mshr_miss_latency::.cpu.data    394128750                       # number of ReadReq MSHR miss cycles
system.cpu.dcache.ReadReq_mshr_miss_latency::total    394128750                       # number of ReadReq MSHR miss cycles
system.cpu.dcache.ReadReq_mshr_miss_rate::.cpu.data     0.003040                       # mshr miss rate for ReadReq accesses
system.cpu.dcache.ReadReq_mshr_miss_rate::total     0.003040                       # mshr miss rate for ReadReq accesses
system.cpu.dcache.ReadReq_avg_mshr_miss_latency::.cpu.data 15451.181982                       # average ReadReq mshr miss latency
system.cpu.dcache.ReadReq_avg_mshr_miss_latency::total 15451.181982                       # average ReadReq mshr miss latency
system.cpu.dcache.WriteReq_hits::.cpu.data      3734304                       # number of WriteReq hits
system.cpu.dcache.WriteReq_hits::total        3734304                       # number of WriteReq hits
system.cpu.dcache.WriteReq_misses::.cpu.data        12791                       # number of WriteReq misses
system.cpu.dcache.WriteReq_misses::total        12791                       # number of WriteReq misses
system.cpu.dcache.WriteReq_miss_latency::.cpu.data    275559374                       # number of WriteReq miss cycles
system.cpu.dcache.WriteReq_miss_latency::total    275559374                       # number of WriteReq miss cycles
system.cpu.dcache.WriteReq_accesses::.cpu.data      3747095                       # number of WriteReq accesses(hits+misses)
system.cpu.dcache.WriteReq_accesses::total      3747095                       # number of WriteReq accesses(hits+misses)
system.cpu.dcache.WriteReq_miss_rate::.cpu.data     0.003414                       # miss rate for WriteReq accesses
system.cpu.dcache.WriteReq_miss_rate::total     0.003414                       # miss rate for WriteReq accesses
system.cpu.dcache.WriteReq_avg_miss_latency::.cpu.data 21543.223673                       # average WriteReq miss latency
system.cpu.dcache.WriteReq_avg_miss_latency::total 21543.223673                       # average WriteReq miss latency
system.cpu.dcache.WriteReq_mshr_hits::.cpu.data         3534                       # number of WriteReq MSHR hits
system.cpu.dcache.WriteReq_mshr_hits::total         3534                       # number of WriteReq MSHR hits
system.cpu.dcache.WriteReq_mshr_misses::.cpu.data         9257                       # number of WriteReq MSHR misses
system.cpu.dcache.WriteReq_mshr_misses::total         9257                       # number of WriteReq MSHR misses
system.cpu.dcache.WriteReq_mshr_miss_latency::.cpu.data    217131875                       # number of WriteReq MSHR miss cycles
system.cpu.dcache.WriteReq_mshr_miss_latency::total    217131875                       # number of WriteReq MSHR miss cycles
system.cpu.dcache.WriteReq_mshr_miss_rate::.cpu.data     0.002470                       # mshr miss rate for WriteReq accesses
system.cpu.dcache.WriteReq_mshr_miss_rate::total     0.002470                       # mshr miss rate for WriteReq accesses
system.cpu.dcache.WriteReq_avg_mshr_miss_latency::.cpu.data 23455.965756                       # average WriteReq mshr miss latency
system.cpu.dcache.WriteReq_avg_mshr_miss_latency::total 23455.965756                       # average WriteReq mshr miss latency
system.cpu.dcache.LoadLockedReq_hits::.cpu.data           50                       # number of LoadLockedReq hits
system.cpu.dcache.LoadLockedReq_hits::total           50                       # number of LoadLockedReq hits
system.cpu.dcache.LoadLockedReq_misses::.cpu.data            2                       # number of LoadLockedReq misses
system.cpu.dcache.LoadLockedReq_misses::total            2                       # number of LoadLockedReq misses
system.cpu.dcache.LoadLockedReq_miss_latency::.cpu.data       358125                       # number of LoadLockedReq miss cycles
system.cpu.dcache.LoadLockedReq_miss_latency::total       358125                       # number of LoadLockedReq miss cycles
system.cpu.dcache.LoadLockedReq_accesses::.cpu.data           52                       # number of LoadLockedReq accesses(hits+misses)
system.cpu.dcache.LoadLockedReq_accesses::total           52                       # number of LoadLockedReq accesses(hits+misses)
system.cpu.dcache.LoadLockedReq_miss_rate::.cpu.data     0.038462                       # miss rate for LoadLockedReq accesses
system.cpu.dcache.LoadLockedReq_miss_rate::total     0.038462                       # miss rate for LoadLockedReq accesses
system.cpu.dcache.LoadLockedReq_avg_miss_latency::.cpu.data 179062.500000                       # average LoadLockedReq miss latency
system.cpu.dcache.LoadLockedReq_avg_miss_latency::total 179062.500000                       # average LoadLockedReq miss latency
system.cpu.dcache.LoadLockedReq_mshr_hits::.cpu.data            2                       # number of LoadLockedReq MSHR hits
system.cpu.dcache.LoadLockedReq_mshr_hits::total            2                       # number of LoadLockedReq MSHR hits
system.cpu.dcache.StoreCondReq_hits::.cpu.data           51                       # number of StoreCondReq hits
system.cpu.dcache.StoreCondReq_hits::total           51                       # number of StoreCondReq hits
system.cpu.dcache.StoreCondReq_accesses::.cpu.data           51                       # number of StoreCondReq accesses(hits+misses)
system.cpu.dcache.StoreCondReq_accesses::total           51                       # number of StoreCondReq accesses(hits+misses)
system.cpu.dcache.tags.pwrStateResidencyTicks::UNDEFINED  17385406250                       # Cumulative time (in ticks) in various power states
system.cpu.dcache.tags.tagsinuse           510.355658                       # Cycle average of tags in use
system.cpu.dcache.tags.total_refs            12131094                       # Total number of references to valid blocks.
system.cpu.dcache.tags.sampled_refs             34764                       # Sample count of references to valid blocks.
system.cpu.dcache.tags.avg_refs            348.955644                       # Average number of references to valid blocks.
system.cpu.dcache.tags.warmup_cycle            173750                       # Cycle when the warmup percentage was hit.
system.cpu.dcache.tags.occ_blocks::.cpu.data   510.355658                       # Average occupied blocks per requestor
system.cpu.dcache.tags.occ_percent::.cpu.data     0.996788                       # Average percentage of cache occupancy
system.cpu.dcache.tags.occ_percent::total     0.996788                       # Average percentage of cache occupancy
system.cpu.dcache.tags.occ_task_id_blocks::1024          512                       # Occupied blocks per task id
system.cpu.dcache.tags.age_task_id_blocks_1024::0           41                       # Occupied blocks per task id
system.cpu.dcache.tags.age_task_id_blocks_1024::1           53                       # Occupied blocks per task id
system.cpu.dcache.tags.age_task_id_blocks_1024::4          418                       # Occupied blocks per task id
system.cpu.dcache.tags.occ_task_id_percent::1024            1                       # Percentage of cache occupancy per task id
system.cpu.dcache.tags.tag_accesses          48592112                       # Number of tag accesses
system.cpu.dcache.tags.data_accesses         48592112                       # Number of data accesses

---------- End Simulation Statistics   ----------
