
---------- Begin Simulation Statistics ----------
final_tick                                53007419375                       # Number of ticks from beginning of simulation (restored from checkpoints and never reset)
host_inst_rate                                 125779                       # Simulator instruction rate (inst/s)
host_mem_usage                                 678028                       # Number of bytes of host memory used
host_op_rate                                   137255                       # Simulator op (including micro ops) rate (op/s)
host_seconds                                   795.05                       # Real time elapsed on the host
host_tick_rate                               66672026                       # Simulator tick rate (ticks/s)
sim_freq                                 1000000000000                       # Frequency of simulated ticks
sim_insts                                   100000001                       # Number of instructions simulated
sim_ops                                     109123914                       # Number of ops (including micro ops) simulated
sim_seconds                                  0.053007                       # Number of seconds simulated
sim_ticks                                 53007419375                       # Number of ticks simulated
system.cpu.branchPred.BTBCorrect                    0                       # Number of correct BTB predictions (this stat may not work properly.
system.cpu.branchPred.BTBHitPct             94.721727                       # BTB Hit Percentage
system.cpu.branchPred.BTBHits                 9323326                       # Number of BTB hits
system.cpu.branchPred.BTBLookups              9842859                       # Number of BTB lookups
system.cpu.branchPred.RASInCorrect                414                       # Number of incorrect RAS predictions.
system.cpu.branchPred.condIncorrect            665098                       # Number of conditional branches incorrect
system.cpu.branchPred.condPredicted          18618787                       # Number of conditional branches predicted
system.cpu.branchPred.indirectHits             349225                       # Number of indirect target hits.
system.cpu.branchPred.indirectLookups          349481                       # Number of indirect predictor lookups.
system.cpu.branchPred.indirectMisses              256                       # Number of indirect misses.
system.cpu.branchPred.lookups                22965149                       # Number of BP lookups
system.cpu.branchPred.usedRAS                 1171724                       # Number of times the RAS was used to get a target.
system.cpu.branchPredindirectMispredicted         1346                       # Number of mispredicted indirect branches.
system.cpu.cc_regfile_reads                 394474995                       # number of cc regfile reads
system.cpu.cc_regfile_writes                 69151233                       # number of cc regfile writes
system.cpu.commit.amos                              0                       # Number of atomic instructions committed
system.cpu.commit.branchMispredicts            511103                       # The number of times a branch was mispredicted
system.cpu.commit.branches                   21269206                       # Number of branches committed
system.cpu.commit.bw_lim_events                902857                       # number cycles where commit BW limit reached
system.cpu.commit.commitNonSpecStalls          180205                       # The number of times commit has been forced to stall to communicate backwards
system.cpu.commit.commitSquashedInsts         3054556                       # The number of squashed insts skipped by commit
system.cpu.commit.committedInsts            100000001                       # Number of instructions committed
system.cpu.commit.committedOps              109123914                       # Number of ops (including micro ops) committed
system.cpu.commit.committed_per_cycle::samples     84150597                       # Number of insts commited each cycle
system.cpu.commit.committed_per_cycle::mean     1.296769                       # Number of insts commited each cycle
system.cpu.commit.committed_per_cycle::stdev     1.634430                       # Number of insts commited each cycle
system.cpu.commit.committed_per_cycle::underflows            0      0.00%      0.00% # Number of insts commited each cycle
system.cpu.commit.committed_per_cycle::0     33102622     39.34%     39.34% # Number of insts commited each cycle
system.cpu.commit.committed_per_cycle::1     25324843     30.09%     69.43% # Number of insts commited each cycle
system.cpu.commit.committed_per_cycle::2     11906676     14.15%     83.58% # Number of insts commited each cycle
system.cpu.commit.committed_per_cycle::3      5633745      6.69%     90.28% # Number of insts commited each cycle
system.cpu.commit.committed_per_cycle::4      3471654      4.13%     94.40% # Number of insts commited each cycle
system.cpu.commit.committed_per_cycle::5      1794916      2.13%     96.53% # Number of insts commited each cycle
system.cpu.commit.committed_per_cycle::6      1092556      1.30%     97.83% # Number of insts commited each cycle
system.cpu.commit.committed_per_cycle::7       920728      1.09%     98.93% # Number of insts commited each cycle
system.cpu.commit.committed_per_cycle::8       902857      1.07%    100.00% # Number of insts commited each cycle
system.cpu.commit.committed_per_cycle::overflows            0      0.00%    100.00% # Number of insts commited each cycle
system.cpu.commit.committed_per_cycle::min_value            0                       # Number of insts commited each cycle
system.cpu.commit.committed_per_cycle::max_value            8                       # Number of insts commited each cycle
system.cpu.commit.committed_per_cycle::total     84150597                       # Number of insts commited each cycle
system.cpu.commit.fp_insts                          0                       # Number of committed floating point instructions.
system.cpu.commit.function_calls              1101808                       # Number of function calls committed.
system.cpu.commit.int_insts                  87226989                       # Number of committed integer instructions.
system.cpu.commit.loads                      21632611                       # Number of loads committed
system.cpu.commit.membars                       90058                       # Number of memory barriers committed
system.cpu.commit.op_class_0::No_OpClass            0      0.00%      0.00% # Class of committed instruction
system.cpu.commit.op_class_0::IntAlu         71426305     65.45%     65.45% # Class of committed instruction
system.cpu.commit.op_class_0::IntMult          424190      0.39%     65.84% # Class of committed instruction
system.cpu.commit.op_class_0::IntDiv                0      0.00%     65.84% # Class of committed instruction
system.cpu.commit.op_class_0::FloatAdd              0      0.00%     65.84% # Class of committed instruction
system.cpu.commit.op_class_0::FloatCmp              0      0.00%     65.84% # Class of committed instruction
system.cpu.commit.op_class_0::FloatCvt              0      0.00%     65.84% # Class of committed instruction
system.cpu.commit.op_class_0::FloatMult             0      0.00%     65.84% # Class of committed instruction
system.cpu.commit.op_class_0::FloatMultAcc            0      0.00%     65.84% # Class of committed instruction
system.cpu.commit.op_class_0::FloatDiv              0      0.00%     65.84% # Class of committed instruction
system.cpu.commit.op_class_0::FloatMisc             0      0.00%     65.84% # Class of committed instruction
system.cpu.commit.op_class_0::FloatSqrt             0      0.00%     65.84% # Class of committed instruction
system.cpu.commit.op_class_0::SimdAdd               0      0.00%     65.84% # Class of committed instruction
system.cpu.commit.op_class_0::SimdAddAcc            0      0.00%     65.84% # Class of committed instruction
system.cpu.commit.op_class_0::SimdAlu               0      0.00%     65.84% # Class of committed instruction
system.cpu.commit.op_class_0::SimdCmp               0      0.00%     65.84% # Class of committed instruction
system.cpu.commit.op_class_0::SimdCvt               0      0.00%     65.84% # Class of committed instruction
system.cpu.commit.op_class_0::SimdMisc              0      0.00%     65.84% # Class of committed instruction
system.cpu.commit.op_class_0::SimdMult              0      0.00%     65.84% # Class of committed instruction
system.cpu.commit.op_class_0::SimdMultAcc            0      0.00%     65.84% # Class of committed instruction
system.cpu.commit.op_class_0::SimdShift             0      0.00%     65.84% # Class of committed instruction
system.cpu.commit.op_class_0::SimdShiftAcc            0      0.00%     65.84% # Class of committed instruction
system.cpu.commit.op_class_0::SimdDiv               0      0.00%     65.84% # Class of committed instruction
system.cpu.commit.op_class_0::SimdSqrt              0      0.00%     65.84% # Class of committed instruction
system.cpu.commit.op_class_0::SimdFloatAdd            0      0.00%     65.84% # Class of committed instruction
system.cpu.commit.op_class_0::SimdFloatAlu            0      0.00%     65.84% # Class of committed instruction
system.cpu.commit.op_class_0::SimdFloatCmp            0      0.00%     65.84% # Class of committed instruction
system.cpu.commit.op_class_0::SimdFloatCvt            0      0.00%     65.84% # Class of committed instruction
system.cpu.commit.op_class_0::SimdFloatDiv            0      0.00%     65.84% # Class of committed instruction
system.cpu.commit.op_class_0::SimdFloatMisc            0      0.00%     65.84% # Class of committed instruction
system.cpu.commit.op_class_0::SimdFloatMult            0      0.00%     65.84% # Class of committed instruction
system.cpu.commit.op_class_0::SimdFloatMultAcc            0      0.00%     65.84% # Class of committed instruction
system.cpu.commit.op_class_0::SimdFloatSqrt            0      0.00%     65.84% # Class of committed instruction
system.cpu.commit.op_class_0::SimdReduceAdd            0      0.00%     65.84% # Class of committed instruction
system.cpu.commit.op_class_0::SimdReduceAlu            0      0.00%     65.84% # Class of committed instruction
system.cpu.commit.op_class_0::SimdReduceCmp            0      0.00%     65.84% # Class of committed instruction
system.cpu.commit.op_class_0::SimdFloatReduceAdd            0      0.00%     65.84% # Class of committed instruction
system.cpu.commit.op_class_0::SimdFloatReduceCmp            0      0.00%     65.84% # Class of committed instruction
system.cpu.commit.op_class_0::SimdAes               0      0.00%     65.84% # Class of committed instruction
system.cpu.commit.op_class_0::SimdAesMix            0      0.00%     65.84% # Class of committed instruction
system.cpu.commit.op_class_0::SimdSha1Hash            0      0.00%     65.84% # Class of committed instruction
system.cpu.commit.op_class_0::SimdSha1Hash2            0      0.00%     65.84% # Class of committed instruction
system.cpu.commit.op_class_0::SimdSha256Hash            0      0.00%     65.84% # Class of committed instruction
system.cpu.commit.op_class_0::SimdSha256Hash2            0      0.00%     65.84% # Class of committed instruction
system.cpu.commit.op_class_0::SimdShaSigma2            0      0.00%     65.84% # Class of committed instruction
system.cpu.commit.op_class_0::SimdShaSigma3            0      0.00%     65.84% # Class of committed instruction
system.cpu.commit.op_class_0::SimdPredAlu            0      0.00%     65.84% # Class of committed instruction
system.cpu.commit.op_class_0::MemRead        21632611     19.82%     85.67% # Class of committed instruction
system.cpu.commit.op_class_0::MemWrite       15640808     14.33%    100.00% # Class of committed instruction
system.cpu.commit.op_class_0::FloatMemRead            0      0.00%    100.00% # Class of committed instruction
system.cpu.commit.op_class_0::FloatMemWrite            0      0.00%    100.00% # Class of committed instruction
system.cpu.commit.op_class_0::IprAccess             0      0.00%    100.00% # Class of committed instruction
system.cpu.commit.op_class_0::InstPrefetch            0      0.00%    100.00% # Class of committed instruction
system.cpu.commit.op_class_0::total         109123914                       # Class of committed instruction
system.cpu.commit.refs                       37273419                       # Number of memory references committed
system.cpu.commit.swp_count                         0                       # Number of s/w prefetches committed
system.cpu.commit.vec_insts                         0                       # Number of committed Vector instructions.
system.cpu.committedInsts                   100000001                       # Number of Instructions Simulated
system.cpu.committedOps                     109123914                       # Number of Ops (including micro ops) Simulated
system.cpu.cpi                               0.848119                       # CPI: Cycles Per Instruction
system.cpu.cpi_total                         0.848119                       # CPI: Total CPI of All Threads
system.cpu.decode.BlockedCycles               6855034                       # Number of cycles decode is blocked
system.cpu.decode.BranchMispred                154040                       # Number of times decode detected a branch misprediction
system.cpu.decode.BranchResolved              9308883                       # Number of times decode resolved a branch
system.cpu.decode.DecodedInsts              115159034                       # Number of instructions handled by decode
system.cpu.decode.IdleCycles                 28707461                       # Number of cycles decode is idle
system.cpu.decode.RunCycles                  48407782                       # Number of cycles decode is running
system.cpu.decode.SquashCycles                 511678                       # Number of cycles decode is squashing
system.cpu.decode.SquashedInsts               2347199                       # Number of squashed instructions handled by decode
system.cpu.decode.UnblockCycles                298835                       # Number of cycles decode is unblocking
system.cpu.dtb.accesses                             0                       # DTB accesses
system.cpu.dtb.align_faults                         0                       # Number of TLB faults due to alignment restrictions
system.cpu.dtb.domain_faults                        0                       # Number of TLB faults due to domain restrictions
system.cpu.dtb.flush_entries                        0                       # Number of entries that have been flushed from TLB
system.cpu.dtb.flush_tlb                            0                       # Number of times complete TLB was flushed
system.cpu.dtb.flush_tlb_asid                       0                       # Number of times TLB was flushed by ASID
system.cpu.dtb.flush_tlb_mva                        0                       # Number of times TLB was flushed by MVA
system.cpu.dtb.flush_tlb_mva_asid                   0                       # Number of times TLB was flushed by MVA & ASID
system.cpu.dtb.hits                                 0                       # DTB hits
system.cpu.dtb.inst_accesses                        0                       # ITB inst accesses
system.cpu.dtb.inst_hits                            0                       # ITB inst hits
system.cpu.dtb.inst_misses                          0                       # ITB inst misses
system.cpu.dtb.misses                               0                       # DTB misses
system.cpu.dtb.perms_faults                         0                       # Number of TLB faults due to permissions restrictions
system.cpu.dtb.prefetch_faults                      0                       # Number of TLB faults due to prefetch
system.cpu.dtb.read_accesses                        0                       # DTB read accesses
system.cpu.dtb.read_hits                            0                       # DTB read hits
system.cpu.dtb.read_misses                          0                       # DTB read misses
system.cpu.dtb.stage2_mmu.stage2_tlb.accesses            0                       # DTB accesses
system.cpu.dtb.stage2_mmu.stage2_tlb.align_faults            0                       # Number of TLB faults due to alignment restrictions
system.cpu.dtb.stage2_mmu.stage2_tlb.domain_faults            0                       # Number of TLB faults due to domain restrictions
system.cpu.dtb.stage2_mmu.stage2_tlb.flush_entries            0                       # Number of entries that have been flushed from TLB
system.cpu.dtb.stage2_mmu.stage2_tlb.flush_tlb            0                       # Number of times complete TLB was flushed
system.cpu.dtb.stage2_mmu.stage2_tlb.flush_tlb_asid            0                       # Number of times TLB was flushed by ASID
system.cpu.dtb.stage2_mmu.stage2_tlb.flush_tlb_mva            0                       # Number of times TLB was flushed by MVA
system.cpu.dtb.stage2_mmu.stage2_tlb.flush_tlb_mva_asid            0                       # Number of times TLB was flushed by MVA & ASID
system.cpu.dtb.stage2_mmu.stage2_tlb.hits            0                       # DTB hits
system.cpu.dtb.stage2_mmu.stage2_tlb.inst_accesses            0                       # ITB inst accesses
system.cpu.dtb.stage2_mmu.stage2_tlb.inst_hits            0                       # ITB inst hits
system.cpu.dtb.stage2_mmu.stage2_tlb.inst_misses            0                       # ITB inst misses
system.cpu.dtb.stage2_mmu.stage2_tlb.misses            0                       # DTB misses
system.cpu.dtb.stage2_mmu.stage2_tlb.perms_faults            0                       # Number of TLB faults due to permissions restrictions
system.cpu.dtb.stage2_mmu.stage2_tlb.prefetch_faults            0                       # Number of TLB faults due to prefetch
system.cpu.dtb.stage2_mmu.stage2_tlb.read_accesses            0                       # DTB read accesses
system.cpu.dtb.stage2_mmu.stage2_tlb.read_hits            0                       # DTB read hits
system.cpu.dtb.stage2_mmu.stage2_tlb.read_misses            0                       # DTB read misses
system.cpu.dtb.stage2_mmu.stage2_tlb.walker.walkRequestOrigin_Requested::Data            0                       # Table walker requests started/completed, data/inst
system.cpu.dtb.stage2_mmu.stage2_tlb.walker.walkRequestOrigin_Requested::Inst            0                       # Table walker requests started/completed, data/inst
system.cpu.dtb.stage2_mmu.stage2_tlb.walker.walkRequestOrigin_Requested::total            0                       # Table walker requests started/completed, data/inst
system.cpu.dtb.stage2_mmu.stage2_tlb.walker.walkRequestOrigin_Completed::Data            0                       # Table walker requests started/completed, data/inst
system.cpu.dtb.stage2_mmu.stage2_tlb.walker.walkRequestOrigin_Completed::Inst            0                       # Table walker requests started/completed, data/inst
system.cpu.dtb.stage2_mmu.stage2_tlb.walker.walkRequestOrigin_Completed::total            0                       # Table walker requests started/completed, data/inst
system.cpu.dtb.stage2_mmu.stage2_tlb.walker.walkRequestOrigin::total            0                       # Table walker requests started/completed, data/inst
system.cpu.dtb.stage2_mmu.stage2_tlb.walker.walks            0                       # Table walker walks requested
system.cpu.dtb.stage2_mmu.stage2_tlb.write_accesses            0                       # DTB write accesses
system.cpu.dtb.stage2_mmu.stage2_tlb.write_hits            0                       # DTB write hits
system.cpu.dtb.stage2_mmu.stage2_tlb.write_misses            0                       # DTB write misses
system.cpu.dtb.walker.walkRequestOrigin_Requested::Data            0                       # Table walker requests started/completed, data/inst
system.cpu.dtb.walker.walkRequestOrigin_Requested::Inst            0                       # Table walker requests started/completed, data/inst
system.cpu.dtb.walker.walkRequestOrigin_Requested::total            0                       # Table walker requests started/completed, data/inst
system.cpu.dtb.walker.walkRequestOrigin_Completed::Data            0                       # Table walker requests started/completed, data/inst
system.cpu.dtb.walker.walkRequestOrigin_Completed::Inst            0                       # Table walker requests started/completed, data/inst
system.cpu.dtb.walker.walkRequestOrigin_Completed::total            0                       # Table walker requests started/completed, data/inst
system.cpu.dtb.walker.walkRequestOrigin::total            0                       # Table walker requests started/completed, data/inst
system.cpu.dtb.walker.walks                         0                       # Table walker walks requested
system.cpu.dtb.write_accesses                       0                       # DTB write accesses
system.cpu.dtb.write_hits                           0                       # DTB write hits
system.cpu.dtb.write_misses                         0                       # DTB write misses
system.cpu.fetch.Branches                    22965149                       # Number of branches that fetch encountered
system.cpu.fetch.CacheLines                  27446895                       # Number of cache lines fetched
system.cpu.fetch.Cycles                      56169957                       # Number of cycles fetch has run and was not squashing or blocked
system.cpu.fetch.IcacheSquashes                116286                       # Number of outstanding Icache misses that were squashed
system.cpu.fetch.Insts                      109094248                       # Number of instructions fetch has processed
system.cpu.fetch.MiscStallCycles                    5                       # Number of cycles fetch has spent waiting on interrupts, or bad addresses, or out of MSHRs
system.cpu.fetch.PendingTrapStallCycles           227                       # Number of stall cycles due to pending traps
system.cpu.fetch.SquashCycles                 1331354                       # Number of cycles fetch has spent squashing
system.cpu.fetch.branchRate                  0.270778                       # Number of branch fetches per cycle
system.cpu.fetch.icacheStallCycles           27944924                       # Number of cycles fetch is stalled on an Icache miss
system.cpu.fetch.predictedBranches           10844275                       # Number of branches that fetch has predicted taken
system.cpu.fetch.rate                        1.286309                       # Number of inst fetches per cycle
system.cpu.fetch.rateDist::samples           84780790                       # Number of instructions fetched each cycle (Total)
system.cpu.fetch.rateDist::mean              1.400801                       # Number of instructions fetched each cycle (Total)
system.cpu.fetch.rateDist::stdev             1.326476                       # Number of instructions fetched each cycle (Total)
system.cpu.fetch.rateDist::underflows               0      0.00%      0.00% # Number of instructions fetched each cycle (Total)
system.cpu.fetch.rateDist::0                 35298839     41.64%     41.64% # Number of instructions fetched each cycle (Total)
system.cpu.fetch.rateDist::1                  9311101     10.98%     52.62% # Number of instructions fetched each cycle (Total)
system.cpu.fetch.rateDist::2                 11062595     13.05%     65.67% # Number of instructions fetched each cycle (Total)
system.cpu.fetch.rateDist::3                 29108255     34.33%    100.00% # Number of instructions fetched each cycle (Total)
system.cpu.fetch.rateDist::overflows                0      0.00%    100.00% # Number of instructions fetched each cycle (Total)
system.cpu.fetch.rateDist::min_value                0                       # Number of instructions fetched each cycle (Total)
system.cpu.fetch.rateDist::max_value                3                       # Number of instructions fetched each cycle (Total)
system.cpu.fetch.rateDist::total             84780790                       # Number of instructions fetched each cycle (Total)
system.cpu.idleCycles                           31082                       # Total number of cycles that the CPU has spent unscheduled due to idling
system.cpu.iew.branchMispredicts               513959                       # Number of branch mispredicts detected at execute
system.cpu.iew.exec_branches                 21472839                       # Number of branches executed
system.cpu.iew.exec_nop                            22                       # number of nop insts executed
system.cpu.iew.exec_rate                     1.304949                       # Inst execution rate
system.cpu.iew.exec_refs                     37778403                       # number of memory reference insts executed
system.cpu.iew.exec_stores                   15744397                       # Number of stores executed
system.cpu.iew.exec_swp                             0                       # number of swp insts executed
system.cpu.iew.iewBlockCycles                  118694                       # Number of cycles IEW is blocking
system.cpu.iew.iewDispLoadInsts              22561942                       # Number of dispatched load instructions
system.cpu.iew.iewDispNonSpecInsts              90160                       # Number of dispatched non-speculative instructions
system.cpu.iew.iewDispSquashedInsts                 0                       # Number of squashed instructions skipped by dispatch
system.cpu.iew.iewDispStoreInsts             15887926                       # Number of dispatched store instructions
system.cpu.iew.iewDispatchedInsts           112893921                       # Number of instructions dispatched to IQ
system.cpu.iew.iewExecLoadInsts              22034006                       # Number of load instructions executed
system.cpu.iew.iewExecSquashedInsts            724704                       # Number of squashed instructions skipped in execute
system.cpu.iew.iewExecutedInsts             110675209                       # Number of executed instructions
system.cpu.iew.iewIQFullEvents                      1                       # Number of times the IQ has become full, causing a stall
system.cpu.iew.iewIdleCycles                        0                       # Number of cycles IEW is idle
system.cpu.iew.iewLSQFullEvents                    72                       # Number of times the LSQ has become full, causing a stall
system.cpu.iew.iewSquashCycles                 511678                       # Number of cycles IEW is squashing
system.cpu.iew.iewUnblockCycles                    74                       # Number of cycles IEW is unblocking
system.cpu.iew.lsq.thread0.blockedLoads             0                       # Number of blocked loads due to partial load-store forwarding
system.cpu.iew.lsq.thread0.cacheBlocked           749                       # Number of times an access to memory failed due to the cache being blocked
system.cpu.iew.lsq.thread0.forwLoads           847046                       # Number of loads that had data forwarded from stores
system.cpu.iew.lsq.thread0.ignoredResponses            0                       # Number of memory responses ignored because the instruction is squashed
system.cpu.iew.lsq.thread0.invAddrLoads             0                       # Number of loads ignored due to an invalid address
system.cpu.iew.lsq.thread0.invAddrSwpfs             0                       # Number of software prefetches ignored due to an invalid address
system.cpu.iew.lsq.thread0.memOrderViolation          493                       # Number of memory ordering violations
system.cpu.iew.lsq.thread0.rescheduledLoads          898                       # Number of loads that were rescheduled
system.cpu.iew.lsq.thread0.squashedLoads       929331                       # Number of loads squashed
system.cpu.iew.lsq.thread0.squashedStores       247117                       # Number of stores squashed
system.cpu.iew.memOrderViolationEvents            493                       # Number of memory order violations
system.cpu.iew.predictedNotTakenIncorrect       336137                       # Number of branches that were predicted not taken incorrectly
system.cpu.iew.predictedTakenIncorrect         177822                       # Number of branches that were predicted taken incorrectly
system.cpu.iew.wb_consumers                  76646395                       # num instructions consuming a value
system.cpu.iew.wb_count                     110367124                       # cumulative count of insts written-back
system.cpu.iew.wb_fanout                     0.672646                       # average fanout of values written-back
system.cpu.iew.wb_producers                  51555870                       # num instructions producing a value
system.cpu.iew.wb_rate                       1.301317                       # insts written-back per cycle
system.cpu.iew.wb_sent                      110452102                       # cumulative count of insts sent to commit
system.cpu.int_regfile_reads                109703943                       # number of integer regfile reads
system.cpu.int_regfile_writes                55419806                       # number of integer regfile writes
system.cpu.ipc                               1.179080                       # IPC: Instructions Per Cycle
system.cpu.ipc_total                         1.179080                       # IPC: Total IPC of All Threads
system.cpu.iq.FU_type_0::No_OpClass                 4      0.00%      0.00% # Type of FU issued
system.cpu.iq.FU_type_0::IntAlu              72741649     65.30%     65.30% # Type of FU issued
system.cpu.iq.FU_type_0::IntMult               424191      0.38%     65.68% # Type of FU issued
system.cpu.iq.FU_type_0::IntDiv                     0      0.00%     65.68% # Type of FU issued
system.cpu.iq.FU_type_0::FloatAdd                   0      0.00%     65.68% # Type of FU issued
system.cpu.iq.FU_type_0::FloatCmp                   0      0.00%     65.68% # Type of FU issued
system.cpu.iq.FU_type_0::FloatCvt                   0      0.00%     65.68% # Type of FU issued
system.cpu.iq.FU_type_0::FloatMult                  0      0.00%     65.68% # Type of FU issued
system.cpu.iq.FU_type_0::FloatMultAcc               0      0.00%     65.68% # Type of FU issued
system.cpu.iq.FU_type_0::FloatDiv                   0      0.00%     65.68% # Type of FU issued
system.cpu.iq.FU_type_0::FloatMisc                  0      0.00%     65.68% # Type of FU issued
system.cpu.iq.FU_type_0::FloatSqrt                  0      0.00%     65.68% # Type of FU issued
system.cpu.iq.FU_type_0::SimdAdd                   27      0.00%     65.68% # Type of FU issued
system.cpu.iq.FU_type_0::SimdAddAcc                 1      0.00%     65.68% # Type of FU issued
system.cpu.iq.FU_type_0::SimdAlu                    0      0.00%     65.68% # Type of FU issued
system.cpu.iq.FU_type_0::SimdCmp                    0      0.00%     65.68% # Type of FU issued
system.cpu.iq.FU_type_0::SimdCvt                    0      0.00%     65.68% # Type of FU issued
system.cpu.iq.FU_type_0::SimdMisc                   0      0.00%     65.68% # Type of FU issued
system.cpu.iq.FU_type_0::SimdMult                   0      0.00%     65.68% # Type of FU issued
system.cpu.iq.FU_type_0::SimdMultAcc                0      0.00%     65.68% # Type of FU issued
system.cpu.iq.FU_type_0::SimdShift                 26      0.00%     65.68% # Type of FU issued
system.cpu.iq.FU_type_0::SimdShiftAcc               0      0.00%     65.68% # Type of FU issued
system.cpu.iq.FU_type_0::SimdDiv                    0      0.00%     65.68% # Type of FU issued
system.cpu.iq.FU_type_0::SimdSqrt                   0      0.00%     65.68% # Type of FU issued
system.cpu.iq.FU_type_0::SimdFloatAdd               0      0.00%     65.68% # Type of FU issued
system.cpu.iq.FU_type_0::SimdFloatAlu               0      0.00%     65.68% # Type of FU issued
system.cpu.iq.FU_type_0::SimdFloatCmp               0      0.00%     65.68% # Type of FU issued
system.cpu.iq.FU_type_0::SimdFloatCvt               0      0.00%     65.68% # Type of FU issued
system.cpu.iq.FU_type_0::SimdFloatDiv               0      0.00%     65.68% # Type of FU issued
system.cpu.iq.FU_type_0::SimdFloatMisc              0      0.00%     65.68% # Type of FU issued
system.cpu.iq.FU_type_0::SimdFloatMult              0      0.00%     65.68% # Type of FU issued
system.cpu.iq.FU_type_0::SimdFloatMultAcc            0      0.00%     65.68% # Type of FU issued
system.cpu.iq.FU_type_0::SimdFloatSqrt              0      0.00%     65.68% # Type of FU issued
system.cpu.iq.FU_type_0::SimdReduceAdd              0      0.00%     65.68% # Type of FU issued
system.cpu.iq.FU_type_0::SimdReduceAlu              0      0.00%     65.68% # Type of FU issued
system.cpu.iq.FU_type_0::SimdReduceCmp              0      0.00%     65.68% # Type of FU issued
system.cpu.iq.FU_type_0::SimdFloatReduceAdd            0      0.00%     65.68% # Type of FU issued
system.cpu.iq.FU_type_0::SimdFloatReduceCmp            0      0.00%     65.68% # Type of FU issued
system.cpu.iq.FU_type_0::SimdAes                    0      0.00%     65.68% # Type of FU issued
system.cpu.iq.FU_type_0::SimdAesMix                 0      0.00%     65.68% # Type of FU issued
system.cpu.iq.FU_type_0::SimdSha1Hash               0      0.00%     65.68% # Type of FU issued
system.cpu.iq.FU_type_0::SimdSha1Hash2              0      0.00%     65.68% # Type of FU issued
system.cpu.iq.FU_type_0::SimdSha256Hash             0      0.00%     65.68% # Type of FU issued
system.cpu.iq.FU_type_0::SimdSha256Hash2            0      0.00%     65.68% # Type of FU issued
system.cpu.iq.FU_type_0::SimdShaSigma2              0      0.00%     65.68% # Type of FU issued
system.cpu.iq.FU_type_0::SimdShaSigma3              0      0.00%     65.68% # Type of FU issued
system.cpu.iq.FU_type_0::SimdPredAlu                0      0.00%     65.68% # Type of FU issued
system.cpu.iq.FU_type_0::MemRead             22474771     20.17%     85.85% # Type of FU issued
system.cpu.iq.FU_type_0::MemWrite            15759246     14.15%    100.00% # Type of FU issued
system.cpu.iq.FU_type_0::FloatMemRead               0      0.00%    100.00% # Type of FU issued
system.cpu.iq.FU_type_0::FloatMemWrite              0      0.00%    100.00% # Type of FU issued
system.cpu.iq.FU_type_0::IprAccess                  0      0.00%    100.00% # Type of FU issued
system.cpu.iq.FU_type_0::InstPrefetch               0      0.00%    100.00% # Type of FU issued
system.cpu.iq.FU_type_0::total              111399915                       # Type of FU issued
system.cpu.iq.fp_alu_accesses                       0                       # Number of floating point alu accesses
system.cpu.iq.fp_inst_queue_reads                   0                       # Number of floating instruction queue reads
system.cpu.iq.fp_inst_queue_wakeup_accesses            0                       # Number of floating instruction queue wakeup accesses
system.cpu.iq.fp_inst_queue_writes                  0                       # Number of floating instruction queue writes
system.cpu.iq.fu_busy_cnt                    21245141                       # FU busy when requested
system.cpu.iq.fu_busy_rate                   0.190711                       # FU busy rate (busy events/executed inst)
system.cpu.iq.fu_full::No_OpClass                   0      0.00%      0.00% # attempts to use FU when none available
system.cpu.iq.fu_full::IntAlu                 9607698     45.22%     45.22% # attempts to use FU when none available
system.cpu.iq.fu_full::IntMult                      0      0.00%     45.22% # attempts to use FU when none available
system.cpu.iq.fu_full::IntDiv                       0      0.00%     45.22% # attempts to use FU when none available
system.cpu.iq.fu_full::FloatAdd                     0      0.00%     45.22% # attempts to use FU when none available
system.cpu.iq.fu_full::FloatCmp                     0      0.00%     45.22% # attempts to use FU when none available
system.cpu.iq.fu_full::FloatCvt                     0      0.00%     45.22% # attempts to use FU when none available
system.cpu.iq.fu_full::FloatMult                    0      0.00%     45.22% # attempts to use FU when none available
system.cpu.iq.fu_full::FloatMultAcc                 0      0.00%     45.22% # attempts to use FU when none available
system.cpu.iq.fu_full::FloatDiv                     0      0.00%     45.22% # attempts to use FU when none available
system.cpu.iq.fu_full::FloatMisc                    0      0.00%     45.22% # attempts to use FU when none available
system.cpu.iq.fu_full::FloatSqrt                    0      0.00%     45.22% # attempts to use FU when none available
system.cpu.iq.fu_full::SimdAdd                      0      0.00%     45.22% # attempts to use FU when none available
system.cpu.iq.fu_full::SimdAddAcc                   0      0.00%     45.22% # attempts to use FU when none available
system.cpu.iq.fu_full::SimdAlu                      0      0.00%     45.22% # attempts to use FU when none available
system.cpu.iq.fu_full::SimdCmp                      0      0.00%     45.22% # attempts to use FU when none available
system.cpu.iq.fu_full::SimdCvt                      0      0.00%     45.22% # attempts to use FU when none available
system.cpu.iq.fu_full::SimdMisc                     0      0.00%     45.22% # attempts to use FU when none available
system.cpu.iq.fu_full::SimdMult                     0      0.00%     45.22% # attempts to use FU when none available
system.cpu.iq.fu_full::SimdMultAcc                  0      0.00%     45.22% # attempts to use FU when none available
system.cpu.iq.fu_full::SimdShift                    0      0.00%     45.22% # attempts to use FU when none available
system.cpu.iq.fu_full::SimdShiftAcc                 0      0.00%     45.22% # attempts to use FU when none available
system.cpu.iq.fu_full::SimdDiv                      0      0.00%     45.22% # attempts to use FU when none available
system.cpu.iq.fu_full::SimdSqrt                     0      0.00%     45.22% # attempts to use FU when none available
system.cpu.iq.fu_full::SimdFloatAdd                 0      0.00%     45.22% # attempts to use FU when none available
system.cpu.iq.fu_full::SimdFloatAlu                 0      0.00%     45.22% # attempts to use FU when none available
system.cpu.iq.fu_full::SimdFloatCmp                 0      0.00%     45.22% # attempts to use FU when none available
system.cpu.iq.fu_full::SimdFloatCvt                 0      0.00%     45.22% # attempts to use FU when none available
system.cpu.iq.fu_full::SimdFloatDiv                 0      0.00%     45.22% # attempts to use FU when none available
system.cpu.iq.fu_full::SimdFloatMisc                0      0.00%     45.22% # attempts to use FU when none available
system.cpu.iq.fu_full::SimdFloatMult                0      0.00%     45.22% # attempts to use FU when none available
system.cpu.iq.fu_full::SimdFloatMultAcc             0      0.00%     45.22% # attempts to use FU when none available
system.cpu.iq.fu_full::SimdFloatSqrt                0      0.00%     45.22% # attempts to use FU when none available
system.cpu.iq.fu_full::SimdReduceAdd                0      0.00%     45.22% # attempts to use FU when none available
system.cpu.iq.fu_full::SimdReduceAlu                0      0.00%     45.22% # attempts to use FU when none available
system.cpu.iq.fu_full::SimdReduceCmp                0      0.00%     45.22% # attempts to use FU when none available
system.cpu.iq.fu_full::SimdFloatReduceAdd            0      0.00%     45.22% # attempts to use FU when none available
system.cpu.iq.fu_full::SimdFloatReduceCmp            0      0.00%     45.22% # attempts to use FU when none available
system.cpu.iq.fu_full::SimdAes                      0      0.00%     45.22% # attempts to use FU when none available
system.cpu.iq.fu_full::SimdAesMix                   0      0.00%     45.22% # attempts to use FU when none available
system.cpu.iq.fu_full::SimdSha1Hash                 0      0.00%     45.22% # attempts to use FU when none available
system.cpu.iq.fu_full::SimdSha1Hash2                0      0.00%     45.22% # attempts to use FU when none available
system.cpu.iq.fu_full::SimdSha256Hash               0      0.00%     45.22% # attempts to use FU when none available
system.cpu.iq.fu_full::SimdSha256Hash2              0      0.00%     45.22% # attempts to use FU when none available
system.cpu.iq.fu_full::SimdShaSigma2                0      0.00%     45.22% # attempts to use FU when none available
system.cpu.iq.fu_full::SimdShaSigma3                0      0.00%     45.22% # attempts to use FU when none available
system.cpu.iq.fu_full::SimdPredAlu                  0      0.00%     45.22% # attempts to use FU when none available
system.cpu.iq.fu_full::MemRead                5432248     25.57%     70.79% # attempts to use FU when none available
system.cpu.iq.fu_full::MemWrite               6205195     29.21%    100.00% # attempts to use FU when none available
system.cpu.iq.fu_full::FloatMemRead                 0      0.00%    100.00% # attempts to use FU when none available
system.cpu.iq.fu_full::FloatMemWrite                0      0.00%    100.00% # attempts to use FU when none available
system.cpu.iq.fu_full::IprAccess                    0      0.00%    100.00% # attempts to use FU when none available
system.cpu.iq.fu_full::InstPrefetch                 0      0.00%    100.00% # attempts to use FU when none available
system.cpu.iq.int_alu_accesses              132645052                       # Number of integer alu accesses
system.cpu.iq.int_inst_queue_reads          328975950                       # Number of integer instruction queue reads
system.cpu.iq.int_inst_queue_wakeup_accesses    110367124                       # Number of integer instruction queue wakeup accesses
system.cpu.iq.int_inst_queue_writes         116664364                       # Number of integer instruction queue writes
system.cpu.iq.iqInstsAdded                  112713675                       # Number of instructions added to the IQ (excludes non-spec)
system.cpu.iq.iqInstsIssued                 111399915                       # Number of instructions issued
system.cpu.iq.iqNonSpecInstsAdded              180224                       # Number of non-speculative instructions added to the IQ
system.cpu.iq.iqSquashedInstsExamined         3769980                       # Number of squashed instructions iterated over during squash; mainly for profiling
system.cpu.iq.iqSquashedInstsIssued            150191                       # Number of squashed instructions issued
system.cpu.iq.iqSquashedNonSpecRemoved             19                       # Number of squashed non-spec instructions that were removed
system.cpu.iq.iqSquashedOperandsExamined      9903706                       # Number of squashed operands that are examined and possibly removed from graph
system.cpu.iq.issued_per_cycle::samples      84780790                       # Number of insts issued each cycle
system.cpu.iq.issued_per_cycle::mean         1.313976                       # Number of insts issued each cycle
system.cpu.iq.issued_per_cycle::stdev        1.025698                       # Number of insts issued each cycle
system.cpu.iq.issued_per_cycle::underflows            0      0.00%      0.00% # Number of insts issued each cycle
system.cpu.iq.issued_per_cycle::0            22222168     26.21%     26.21% # Number of insts issued each cycle
system.cpu.iq.issued_per_cycle::1            25965143     30.63%     56.84% # Number of insts issued each cycle
system.cpu.iq.issued_per_cycle::2            25342069     29.89%     86.73% # Number of insts issued each cycle
system.cpu.iq.issued_per_cycle::3            10255006     12.10%     98.82% # Number of insts issued each cycle
system.cpu.iq.issued_per_cycle::4              996404      1.18%    100.00% # Number of insts issued each cycle
system.cpu.iq.issued_per_cycle::5                   0      0.00%    100.00% # Number of insts issued each cycle
system.cpu.iq.issued_per_cycle::6                   0      0.00%    100.00% # Number of insts issued each cycle
system.cpu.iq.issued_per_cycle::7                   0      0.00%    100.00% # Number of insts issued each cycle
system.cpu.iq.issued_per_cycle::8                   0      0.00%    100.00% # Number of insts issued each cycle
system.cpu.iq.issued_per_cycle::overflows            0      0.00%    100.00% # Number of insts issued each cycle
system.cpu.iq.issued_per_cycle::min_value            0                       # Number of insts issued each cycle
system.cpu.iq.issued_per_cycle::max_value            4                       # Number of insts issued each cycle
system.cpu.iq.issued_per_cycle::total        84780790                       # Number of insts issued each cycle
system.cpu.iq.rate                           1.313494                       # Inst issue rate
system.cpu.iq.vec_alu_accesses                      0                       # Number of vector alu accesses
system.cpu.iq.vec_inst_queue_reads                  0                       # Number of vector instruction queue reads
system.cpu.iq.vec_inst_queue_wakeup_accesses            0                       # Number of vector instruction queue wakeup accesses
system.cpu.iq.vec_inst_queue_writes                 0                       # Number of vector instruction queue writes
system.cpu.itb.accesses                             0                       # DTB accesses
system.cpu.itb.align_faults                         0                       # Number of TLB faults due to alignment restrictions
system.cpu.itb.domain_faults                        0                       # Number of TLB faults due to domain restrictions
system.cpu.itb.flush_entries                        0                       # Number of entries that have been flushed from TLB
system.cpu.itb.flush_tlb                            0                       # Number of times complete TLB was flushed
system.cpu.itb.flush_tlb_asid                       0                       # Number of times TLB was flushed by ASID
system.cpu.itb.flush_tlb_mva                        0                       # Number of times TLB was flushed by MVA
system.cpu.itb.flush_tlb_mva_asid                   0                       # Number of times TLB was flushed by MVA & ASID
system.cpu.itb.hits                                 0                       # DTB hits
system.cpu.itb.inst_accesses                        0                       # ITB inst accesses
system.cpu.itb.inst_hits                            0                       # ITB inst hits
system.cpu.itb.inst_misses                          0                       # ITB inst misses
system.cpu.itb.misses                               0                       # DTB misses
system.cpu.itb.perms_faults                         0                       # Number of TLB faults due to permissions restrictions
system.cpu.itb.prefetch_faults                      0                       # Number of TLB faults due to prefetch
system.cpu.itb.read_accesses                        0                       # DTB read accesses
system.cpu.itb.read_hits                            0                       # DTB read hits
system.cpu.itb.read_misses                          0                       # DTB read misses
system.cpu.itb.stage2_mmu.stage2_tlb.accesses            0                       # DTB accesses
system.cpu.itb.stage2_mmu.stage2_tlb.align_faults            0                       # Number of TLB faults due to alignment restrictions
system.cpu.itb.stage2_mmu.stage2_tlb.domain_faults            0                       # Number of TLB faults due to domain restrictions
system.cpu.itb.stage2_mmu.stage2_tlb.flush_entries            0                       # Number of entries that have been flushed from TLB
system.cpu.itb.stage2_mmu.stage2_tlb.flush_tlb            0                       # Number of times complete TLB was flushed
system.cpu.itb.stage2_mmu.stage2_tlb.flush_tlb_asid            0                       # Number of times TLB was flushed by ASID
system.cpu.itb.stage2_mmu.stage2_tlb.flush_tlb_mva            0                       # Number of times TLB was flushed by MVA
system.cpu.itb.stage2_mmu.stage2_tlb.flush_tlb_mva_asid            0                       # Number of times TLB was flushed by MVA & ASID
system.cpu.itb.stage2_mmu.stage2_tlb.hits            0                       # DTB hits
system.cpu.itb.stage2_mmu.stage2_tlb.inst_accesses            0                       # ITB inst accesses
system.cpu.itb.stage2_mmu.stage2_tlb.inst_hits            0                       # ITB inst hits
system.cpu.itb.stage2_mmu.stage2_tlb.inst_misses            0                       # ITB inst misses
system.cpu.itb.stage2_mmu.stage2_tlb.misses            0                       # DTB misses
system.cpu.itb.stage2_mmu.stage2_tlb.perms_faults            0                       # Number of TLB faults due to permissions restrictions
system.cpu.itb.stage2_mmu.stage2_tlb.prefetch_faults            0                       # Number of TLB faults due to prefetch
system.cpu.itb.stage2_mmu.stage2_tlb.read_accesses            0                       # DTB read accesses
system.cpu.itb.stage2_mmu.stage2_tlb.read_hits            0                       # DTB read hits
system.cpu.itb.stage2_mmu.stage2_tlb.read_misses            0                       # DTB read misses
system.cpu.itb.stage2_mmu.stage2_tlb.walker.walkRequestOrigin_Requested::Data            0                       # Table walker requests started/completed, data/inst
system.cpu.itb.stage2_mmu.stage2_tlb.walker.walkRequestOrigin_Requested::Inst            0                       # Table walker requests started/completed, data/inst
system.cpu.itb.stage2_mmu.stage2_tlb.walker.walkRequestOrigin_Requested::total            0                       # Table walker requests started/completed, data/inst
system.cpu.itb.stage2_mmu.stage2_tlb.walker.walkRequestOrigin_Completed::Data            0                       # Table walker requests started/completed, data/inst
system.cpu.itb.stage2_mmu.stage2_tlb.walker.walkRequestOrigin_Completed::Inst            0                       # Table walker requests started/completed, data/inst
system.cpu.itb.stage2_mmu.stage2_tlb.walker.walkRequestOrigin_Completed::total            0                       # Table walker requests started/completed, data/inst
system.cpu.itb.stage2_mmu.stage2_tlb.walker.walkRequestOrigin::total            0                       # Table walker requests started/completed, data/inst
system.cpu.itb.stage2_mmu.stage2_tlb.walker.walks            0                       # Table walker walks requested
system.cpu.itb.stage2_mmu.stage2_tlb.write_accesses            0                       # DTB write accesses
system.cpu.itb.stage2_mmu.stage2_tlb.write_hits            0                       # DTB write hits
system.cpu.itb.stage2_mmu.stage2_tlb.write_misses            0                       # DTB write misses
system.cpu.itb.walker.walkRequestOrigin_Requested::Data            0                       # Table walker requests started/completed, data/inst
system.cpu.itb.walker.walkRequestOrigin_Requested::Inst            0                       # Table walker requests started/completed, data/inst
system.cpu.itb.walker.walkRequestOrigin_Requested::total            0                       # Table walker requests started/completed, data/inst
system.cpu.itb.walker.walkRequestOrigin_Completed::Data            0                       # Table walker requests started/completed, data/inst
system.cpu.itb.walker.walkRequestOrigin_Completed::Inst            0                       # Table walker requests started/completed, data/inst
system.cpu.itb.walker.walkRequestOrigin_Completed::total            0                       # Table walker requests started/completed, data/inst
system.cpu.itb.walker.walkRequestOrigin::total            0                       # Table walker requests started/completed, data/inst
system.cpu.itb.walker.walks                         0                       # Table walker walks requested
system.cpu.itb.write_accesses                       0                       # DTB write accesses
system.cpu.itb.write_hits                           0                       # DTB write hits
system.cpu.itb.write_misses                         0                       # DTB write misses
system.cpu.memDep0.conflictingLoads            938510                       # Number of conflicting loads.
system.cpu.memDep0.conflictingStores           234180                       # Number of conflicting stores.
system.cpu.memDep0.insertedLoads             22561942                       # Number of loads inserted to the mem dependence unit.
system.cpu.memDep0.insertedStores            15887926                       # Number of stores inserted to the mem dependence unit.
system.cpu.misc_regfile_reads                40223380                       # number of misc regfile reads
system.cpu.misc_regfile_writes                 360229                       # number of misc regfile writes
system.cpu.numCycles                         84811872                       # number of cpu cycles simulated
system.cpu.numWorkItemsCompleted                    0                       # number of work items this cpu completed
system.cpu.numWorkItemsStarted                      0                       # number of work items this cpu started
system.cpu.rename.BlockCycles                  134200                       # Number of cycles rename is blocking
system.cpu.rename.CommittedMaps             124074827                       # Number of HB maps that are committed
system.cpu.rename.FullRegisterEvents              127                       # Number of times there has been no free registers
system.cpu.rename.IQFullEvents                      3                       # Number of times rename has blocked due to IQ full
system.cpu.rename.IdleCycles                 29881174                       # Number of cycles rename is idle
system.cpu.rename.ROBFullEvents                   145                       # Number of times rename has blocked due to ROB full
system.cpu.rename.RenameLookups             497415545                       # Number of register rename lookups that rename has made
system.cpu.rename.RenamedInsts              113599524                       # Number of instructions processed by rename
system.cpu.rename.RenamedOperands           129699393                       # Number of destination operands rename has renamed
system.cpu.rename.RunCycles                  47532768                       # Number of cycles rename is running
system.cpu.rename.SQFullEvents                 788225                       # Number of times rename has blocked due to SQ full
system.cpu.rename.SquashCycles                 511678                       # Number of cycles rename is squashing
system.cpu.rename.SquashedInsts               1159919                       # Number of squashed instructions processed by rename
system.cpu.rename.UnblockCycles                980380                       # Number of cycles rename is unblocking
system.cpu.rename.UndoneMaps                  5624558                       # Number of HB maps that are undone due to squashing
system.cpu.rename.int_rename_lookups        115296436                       # Number of integer rename lookups
system.cpu.rename.serializeStallCycles        5740590                       # count of cycles rename stalled for serializing inst
system.cpu.rename.serializingInsts              90191                       # count of serializing insts renamed
system.cpu.rename.skidInsts                    367829                       # count of insts added to the skid buffer
system.cpu.rename.tempSerializingInsts          90166                       # count of temporary serializing insts renamed
system.cpu.rename.vec_rename_lookups            97786                       # Number of vector rename lookups
system.cpu.rob.rob_reads                    195425027                       # The number of ROB reads
system.cpu.rob.rob_writes                   224987196                       # The number of ROB writes
system.cpu.timesIdled                             316                       # Number of times that the entire CPU went into an idle state and unscheduled itself
system.cpu.vec_regfile_reads                    93684                       # number of vector regfile reads
system.cpu.vec_regfile_writes                   93632                       # number of vector regfile writes
system.cpu.workload.numSyscalls                    90                       # Number of system calls
system.membus.snoop_filter.hit_multi_requests            0                       # Number of requests hitting in the snoop filter with multiple (>1) holders of the requested data.
system.membus.snoop_filter.hit_multi_snoops            0                       # Number of snoops hitting in the snoop filter with multiple (>1) holders of the requested data.
system.membus.snoop_filter.hit_single_requests        26469                       # Number of requests hitting in the snoop filter with a single holder of the requested data.
system.membus.snoop_filter.hit_single_snoops            0                       # Number of snoops hitting in the snoop filter with a single holder of the requested data.
system.membus.snoop_filter.tot_requests         69709                       # Total number of requests made to the snoop filter.
system.membus.snoop_filter.tot_snoops               0                       # Total number of snoops made to the snoop filter.
system.tol2bus.snoop_filter.hit_multi_requests           81                       # Number of requests hitting in the snoop filter with multiple (>1) holders of the requested data.
system.tol2bus.snoop_filter.hit_multi_snoops            4                       # Number of snoops hitting in the snoop filter with multiple (>1) holders of the requested data.
system.tol2bus.snoop_filter.hit_single_requests        59267                       # Number of requests hitting in the snoop filter with a single holder of the requested data.
system.tol2bus.snoop_filter.hit_single_snoops          392                       # Number of snoops hitting in the snoop filter with a single holder of the requested data.
system.tol2bus.snoop_filter.tot_requests       119398                       # Total number of requests made to the snoop filter.
system.tol2bus.snoop_filter.tot_snoops            396                       # Total number of snoops made to the snoop filter.
system.membus.pwrStateResidencyTicks::UNDEFINED  53007419375                       # Cumulative time (in ticks) in various power states
system.membus.trans_dist::ReadResp               4214                       # Transaction distribution
system.membus.trans_dist::WritebackDirty        26402                       # Transaction distribution
system.membus.trans_dist::CleanEvict               66                       # Transaction distribution
system.membus.trans_dist::ReadExReq             39027                       # Transaction distribution
system.membus.trans_dist::ReadExResp            39027                       # Transaction distribution
system.membus.trans_dist::ReadSharedReq          4214                       # Transaction distribution
system.membus.pkt_count_system.l2.mem_side::system.mem_ctrls.port       112950                       # Packet count per connected master and slave (bytes)
system.membus.pkt_count::total                 112950                       # Packet count per connected master and slave (bytes)
system.membus.pkt_size_system.l2.mem_side::system.mem_ctrls.port      4457152                       # Cumulative packet size per connected master and slave (bytes)
system.membus.pkt_size::total                 4457152                       # Cumulative packet size per connected master and slave (bytes)
system.membus.snoops                                0                       # Total snoops (count)
system.membus.snoopTraffic                          0                       # Total snoop traffic (bytes)
system.membus.snoop_fanout::samples             43241                       # Request fanout histogram
system.membus.snoop_fanout::mean                    0                       # Request fanout histogram
system.membus.snoop_fanout::stdev                   0                       # Request fanout histogram
system.membus.snoop_fanout::underflows              0      0.00%      0.00% # Request fanout histogram
system.membus.snoop_fanout::0                   43241    100.00%    100.00% # Request fanout histogram
system.membus.snoop_fanout::1                       0      0.00%    100.00% # Request fanout histogram
system.membus.snoop_fanout::overflows               0      0.00%    100.00% # Request fanout histogram
system.membus.snoop_fanout::min_value               0                       # Request fanout histogram
system.membus.snoop_fanout::max_value               0                       # Request fanout histogram
system.membus.snoop_fanout::total               43241                       # Request fanout histogram
system.membus.respLayer1.occupancy          230523375                       # Layer occupancy (ticks)
system.membus.respLayer1.utilization              0.4                       # Layer utilization (%)
system.membus.reqLayer0.occupancy           201096500                       # Layer occupancy (ticks)
system.membus.reqLayer0.utilization               0.4                       # Layer utilization (%)
system.tol2bus.pwrStateResidencyTicks::UNDEFINED  53007419375                       # Cumulative time (in ticks) in various power states
system.tol2bus.trans_dist::ReadResp             21106                       # Transaction distribution
system.tol2bus.trans_dist::WritebackDirty        78702                       # Transaction distribution
system.tol2bus.trans_dist::WritebackClean           37                       # Transaction distribution
system.tol2bus.trans_dist::CleanEvict            7388                       # Transaction distribution
system.tol2bus.trans_dist::ReadExReq            39029                       # Transaction distribution
system.tol2bus.trans_dist::ReadExResp           39029                       # Transaction distribution
system.tol2bus.trans_dist::ReadCleanReq           397                       # Transaction distribution
system.tol2bus.trans_dist::ReadSharedReq        20709                       # Transaction distribution
system.tol2bus.pkt_count_system.cpu.icache.mem_side::system.l2.cpu_side          831                       # Packet count per connected master and slave (bytes)
system.tol2bus.pkt_count_system.cpu.dcache.mem_side::system.l2.cpu_side       178702                       # Packet count per connected master and slave (bytes)
system.tol2bus.pkt_count::total                179533                       # Packet count per connected master and slave (bytes)
system.tol2bus.pkt_size_system.cpu.icache.mem_side::system.l2.cpu_side        27776                       # Cumulative packet size per connected master and slave (bytes)
system.tol2bus.pkt_size_system.cpu.dcache.mem_side::system.l2.cpu_side      7170432                       # Cumulative packet size per connected master and slave (bytes)
system.tol2bus.pkt_size::total                7198208                       # Cumulative packet size per connected master and slave (bytes)
system.tol2bus.snoops                           26864                       # Total snoops (count)
system.tol2bus.snoopTraffic                   1689728                       # Total snoop traffic (bytes)
system.tol2bus.snoop_fanout::samples            86999                       # Request fanout histogram
system.tol2bus.snoop_fanout::mean            0.005575                       # Request fanout histogram
system.tol2bus.snoop_fanout::stdev           0.075071                       # Request fanout histogram
system.tol2bus.snoop_fanout::underflows             0      0.00%      0.00% # Request fanout histogram
system.tol2bus.snoop_fanout::0                  86518     99.45%     99.45% # Request fanout histogram
system.tol2bus.snoop_fanout::1                    477      0.55%    100.00% # Request fanout histogram
system.tol2bus.snoop_fanout::2                      4      0.00%    100.00% # Request fanout histogram
system.tol2bus.snoop_fanout::overflows              0      0.00%    100.00% # Request fanout histogram
system.tol2bus.snoop_fanout::min_value              0                       # Request fanout histogram
system.tol2bus.snoop_fanout::max_value              2                       # Request fanout histogram
system.tol2bus.snoop_fanout::total              86999                       # Request fanout histogram
system.tol2bus.reqLayer0.occupancy          140045000                       # Layer occupancy (ticks)
system.tol2bus.reqLayer0.utilization              0.3                       # Layer utilization (%)
system.tol2bus.respLayer1.occupancy         112011246                       # Layer occupancy (ticks)
system.tol2bus.respLayer1.utilization             0.2                       # Layer utilization (%)
system.tol2bus.respLayer0.occupancy            746247                       # Layer occupancy (ticks)
system.tol2bus.respLayer0.utilization             0.0                       # Layer utilization (%)
system.voltage_domain.voltage                       1                       # Voltage in Volts
system.clk_domain.clock                          1000                       # Clock period in ticks
system.l2.pwrStateResidencyTicks::UNDEFINED  53007419375                       # Cumulative time (in ticks) in various power states
system.l2.demand_hits::.cpu.inst                   12                       # number of demand (read+write) hits
system.l2.demand_hits::.cpu.data                16875                       # number of demand (read+write) hits
system.l2.demand_hits::total                    16887                       # number of demand (read+write) hits
system.l2.overall_hits::.cpu.inst                  12                       # number of overall hits
system.l2.overall_hits::.cpu.data               16875                       # number of overall hits
system.l2.overall_hits::total                   16887                       # number of overall hits
system.l2.demand_misses::.cpu.inst                385                       # number of demand (read+write) misses
system.l2.demand_misses::.cpu.data              42863                       # number of demand (read+write) misses
system.l2.demand_misses::total                  43248                       # number of demand (read+write) misses
system.l2.overall_misses::.cpu.inst               385                       # number of overall misses
system.l2.overall_misses::.cpu.data             42863                       # number of overall misses
system.l2.overall_misses::total                 43248                       # number of overall misses
system.l2.demand_miss_latency::.cpu.inst     32579375                       # number of demand (read+write) miss cycles
system.l2.demand_miss_latency::.cpu.data   3886561875                       # number of demand (read+write) miss cycles
system.l2.demand_miss_latency::total       3919141250                       # number of demand (read+write) miss cycles
system.l2.overall_miss_latency::.cpu.inst     32579375                       # number of overall miss cycles
system.l2.overall_miss_latency::.cpu.data   3886561875                       # number of overall miss cycles
system.l2.overall_miss_latency::total      3919141250                       # number of overall miss cycles
system.l2.demand_accesses::.cpu.inst              397                       # number of demand (read+write) accesses
system.l2.demand_accesses::.cpu.data            59738                       # number of demand (read+write) accesses
system.l2.demand_accesses::total                60135                       # number of demand (read+write) accesses
system.l2.overall_accesses::.cpu.inst             397                       # number of overall (read+write) accesses
system.l2.overall_accesses::.cpu.data           59738                       # number of overall (read+write) accesses
system.l2.overall_accesses::total               60135                       # number of overall (read+write) accesses
system.l2.demand_miss_rate::.cpu.inst        0.969773                       # miss rate for demand accesses
system.l2.demand_miss_rate::.cpu.data        0.717516                       # miss rate for demand accesses
system.l2.demand_miss_rate::total            0.719182                       # miss rate for demand accesses
system.l2.overall_miss_rate::.cpu.inst       0.969773                       # miss rate for overall accesses
system.l2.overall_miss_rate::.cpu.data       0.717516                       # miss rate for overall accesses
system.l2.overall_miss_rate::total           0.719182                       # miss rate for overall accesses
system.l2.demand_avg_miss_latency::.cpu.inst 84621.753247                       # average overall miss latency
system.l2.demand_avg_miss_latency::.cpu.data 90674.051630                       # average overall miss latency
system.l2.demand_avg_miss_latency::total 90620.173187                       # average overall miss latency
system.l2.overall_avg_miss_latency::.cpu.inst 84621.753247                       # average overall miss latency
system.l2.overall_avg_miss_latency::.cpu.data 90674.051630                       # average overall miss latency
system.l2.overall_avg_miss_latency::total 90620.173187                       # average overall miss latency
system.l2.blocked_cycles::no_mshrs                  0                       # number of cycles access was blocked
system.l2.blocked_cycles::no_targets                0                       # number of cycles access was blocked
system.l2.blocked::no_mshrs                         0                       # number of cycles access was blocked
system.l2.blocked::no_targets                       0                       # number of cycles access was blocked
system.l2.avg_blocked_cycles::no_mshrs            nan                       # average number of cycles each access was blocked
system.l2.avg_blocked_cycles::no_targets          nan                       # average number of cycles each access was blocked
system.l2.writebacks::.writebacks               26402                       # number of writebacks
system.l2.writebacks::total                     26402                       # number of writebacks
system.l2.demand_mshr_hits::.cpu.inst               3                       # number of demand (read+write) MSHR hits
system.l2.demand_mshr_hits::.cpu.data               4                       # number of demand (read+write) MSHR hits
system.l2.demand_mshr_hits::total                   7                       # number of demand (read+write) MSHR hits
system.l2.overall_mshr_hits::.cpu.inst              3                       # number of overall MSHR hits
system.l2.overall_mshr_hits::.cpu.data              4                       # number of overall MSHR hits
system.l2.overall_mshr_hits::total                  7                       # number of overall MSHR hits
system.l2.demand_mshr_misses::.cpu.inst           382                       # number of demand (read+write) MSHR misses
system.l2.demand_mshr_misses::.cpu.data         42859                       # number of demand (read+write) MSHR misses
system.l2.demand_mshr_misses::total             43241                       # number of demand (read+write) MSHR misses
system.l2.overall_mshr_misses::.cpu.inst          382                       # number of overall MSHR misses
system.l2.overall_mshr_misses::.cpu.data        42859                       # number of overall MSHR misses
system.l2.overall_mshr_misses::total            43241                       # number of overall MSHR misses
system.l2.demand_mshr_miss_latency::.cpu.inst     27470625                       # number of demand (read+write) MSHR miss cycles
system.l2.demand_mshr_miss_latency::.cpu.data   3339487500                       # number of demand (read+write) MSHR miss cycles
system.l2.demand_mshr_miss_latency::total   3366958125                       # number of demand (read+write) MSHR miss cycles
system.l2.overall_mshr_miss_latency::.cpu.inst     27470625                       # number of overall MSHR miss cycles
system.l2.overall_mshr_miss_latency::.cpu.data   3339487500                       # number of overall MSHR miss cycles
system.l2.overall_mshr_miss_latency::total   3366958125                       # number of overall MSHR miss cycles
system.l2.demand_mshr_miss_rate::.cpu.inst     0.962217                       # mshr miss rate for demand accesses
system.l2.demand_mshr_miss_rate::.cpu.data     0.717450                       # mshr miss rate for demand accesses
system.l2.demand_mshr_miss_rate::total       0.719065                       # mshr miss rate for demand accesses
system.l2.overall_mshr_miss_rate::.cpu.inst     0.962217                       # mshr miss rate for overall accesses
system.l2.overall_mshr_miss_rate::.cpu.data     0.717450                       # mshr miss rate for overall accesses
system.l2.overall_mshr_miss_rate::total      0.719065                       # mshr miss rate for overall accesses
system.l2.demand_avg_mshr_miss_latency::.cpu.inst 71912.630890                       # average overall mshr miss latency
system.l2.demand_avg_mshr_miss_latency::.cpu.data 77917.998553                       # average overall mshr miss latency
system.l2.demand_avg_mshr_miss_latency::total 77864.945885                       # average overall mshr miss latency
system.l2.overall_avg_mshr_miss_latency::.cpu.inst 71912.630890                       # average overall mshr miss latency
system.l2.overall_avg_mshr_miss_latency::.cpu.data 77917.998553                       # average overall mshr miss latency
system.l2.overall_avg_mshr_miss_latency::total 77864.945885                       # average overall mshr miss latency
system.l2.replacements                          26864                       # number of replacements
system.l2.WritebackDirty_hits::.writebacks        52300                       # number of WritebackDirty hits
system.l2.WritebackDirty_hits::total            52300                       # number of WritebackDirty hits
system.l2.WritebackDirty_accesses::.writebacks        52300                       # number of WritebackDirty accesses(hits+misses)
system.l2.WritebackDirty_accesses::total        52300                       # number of WritebackDirty accesses(hits+misses)
system.l2.WritebackClean_hits::.writebacks           35                       # number of WritebackClean hits
system.l2.WritebackClean_hits::total               35                       # number of WritebackClean hits
system.l2.WritebackClean_accesses::.writebacks           35                       # number of WritebackClean accesses(hits+misses)
system.l2.WritebackClean_accesses::total           35                       # number of WritebackClean accesses(hits+misses)
system.l2.ReadExReq_hits::.cpu.data                 2                       # number of ReadExReq hits
system.l2.ReadExReq_hits::total                     2                       # number of ReadExReq hits
system.l2.ReadExReq_misses::.cpu.data           39027                       # number of ReadExReq misses
system.l2.ReadExReq_misses::total               39027                       # number of ReadExReq misses
system.l2.ReadExReq_miss_latency::.cpu.data   3523515000                       # number of ReadExReq miss cycles
system.l2.ReadExReq_miss_latency::total    3523515000                       # number of ReadExReq miss cycles
system.l2.ReadExReq_accesses::.cpu.data         39029                       # number of ReadExReq accesses(hits+misses)
system.l2.ReadExReq_accesses::total             39029                       # number of ReadExReq accesses(hits+misses)
system.l2.ReadExReq_miss_rate::.cpu.data     0.999949                       # miss rate for ReadExReq accesses
system.l2.ReadExReq_miss_rate::total         0.999949                       # miss rate for ReadExReq accesses
system.l2.ReadExReq_avg_miss_latency::.cpu.data 90284.034130                       # average ReadExReq miss latency
system.l2.ReadExReq_avg_miss_latency::total 90284.034130                       # average ReadExReq miss latency
system.l2.ReadExReq_mshr_misses::.cpu.data        39027                       # number of ReadExReq MSHR misses
system.l2.ReadExReq_mshr_misses::total          39027                       # number of ReadExReq MSHR misses
system.l2.ReadExReq_mshr_miss_latency::.cpu.data   3025562875                       # number of ReadExReq MSHR miss cycles
system.l2.ReadExReq_mshr_miss_latency::total   3025562875                       # number of ReadExReq MSHR miss cycles
system.l2.ReadExReq_mshr_miss_rate::.cpu.data     0.999949                       # mshr miss rate for ReadExReq accesses
system.l2.ReadExReq_mshr_miss_rate::total     0.999949                       # mshr miss rate for ReadExReq accesses
system.l2.ReadExReq_avg_mshr_miss_latency::.cpu.data 77524.864197                       # average ReadExReq mshr miss latency
system.l2.ReadExReq_avg_mshr_miss_latency::total 77524.864197                       # average ReadExReq mshr miss latency
system.l2.ReadCleanReq_hits::.cpu.inst             12                       # number of ReadCleanReq hits
system.l2.ReadCleanReq_hits::total                 12                       # number of ReadCleanReq hits
system.l2.ReadCleanReq_misses::.cpu.inst          385                       # number of ReadCleanReq misses
system.l2.ReadCleanReq_misses::total              385                       # number of ReadCleanReq misses
system.l2.ReadCleanReq_miss_latency::.cpu.inst     32579375                       # number of ReadCleanReq miss cycles
system.l2.ReadCleanReq_miss_latency::total     32579375                       # number of ReadCleanReq miss cycles
system.l2.ReadCleanReq_accesses::.cpu.inst          397                       # number of ReadCleanReq accesses(hits+misses)
system.l2.ReadCleanReq_accesses::total            397                       # number of ReadCleanReq accesses(hits+misses)
system.l2.ReadCleanReq_miss_rate::.cpu.inst     0.969773                       # miss rate for ReadCleanReq accesses
system.l2.ReadCleanReq_miss_rate::total      0.969773                       # miss rate for ReadCleanReq accesses
system.l2.ReadCleanReq_avg_miss_latency::.cpu.inst 84621.753247                       # average ReadCleanReq miss latency
system.l2.ReadCleanReq_avg_miss_latency::total 84621.753247                       # average ReadCleanReq miss latency
system.l2.ReadCleanReq_mshr_hits::.cpu.inst            3                       # number of ReadCleanReq MSHR hits
system.l2.ReadCleanReq_mshr_hits::total             3                       # number of ReadCleanReq MSHR hits
system.l2.ReadCleanReq_mshr_misses::.cpu.inst          382                       # number of ReadCleanReq MSHR misses
system.l2.ReadCleanReq_mshr_misses::total          382                       # number of ReadCleanReq MSHR misses
system.l2.ReadCleanReq_mshr_miss_latency::.cpu.inst     27470625                       # number of ReadCleanReq MSHR miss cycles
[...]
system.cpu.icache.tags.age_task_id_blocks_1024::4          360                       # Occupied blocks per task id
system.cpu.icache.tags.occ_task_id_percent::1024     0.703125                       # Percentage of cache occupancy per task id
system.cpu.icache.tags.tag_accesses         109787977                       # Number of tag accesses
system.cpu.icache.tags.data_accesses        109787977                       # Number of data accesses
system.cpu.dtb.walker.pwrStateResidencyTicks::UNDEFINED  53007419375                       # Cumulative time (in ticks) in various power states
system.cpu.dtb.stage2_mmu.stage2_tlb.walker.pwrStateResidencyTicks::UNDEFINED  53007419375                       # Cumulative time (in ticks) in various power states
system.cpu.itb.walker.pwrStateResidencyTicks::UNDEFINED  53007419375                       # Cumulative time (in ticks) in various power states
system.cpu.itb.stage2_mmu.stage2_tlb.walker.pwrStateResidencyTicks::UNDEFINED  53007419375                       # Cumulative time (in ticks) in various power states
system.cpu.dcache.pwrStateResidencyTicks::UNDEFINED  53007419375                       # Cumulative time (in ticks) in various power states
system.cpu.dcache.demand_hits::.cpu.data     35478353                       # number of demand (read+write) hits
system.cpu.dcache.demand_hits::total         35478353                       # number of demand (read+write) hits
system.cpu.dcache.overall_hits::.cpu.data     35481724                       # number of overall hits
system.cpu.dcache.overall_hits::total        35481724                       # number of overall hits
system.cpu.dcache.demand_misses::.cpu.data       147906                       # number of demand (read+write) misses
system.cpu.dcache.demand_misses::total         147906                       # number of demand (read+write) misses
system.cpu.dcache.overall_misses::.cpu.data       147947                       # number of overall misses
system.cpu.dcache.overall_misses::total        147947                       # number of overall misses
system.cpu.dcache.demand_miss_latency::.cpu.data  11783079252                       # number of demand (read+write) miss cycles
system.cpu.dcache.demand_miss_latency::total  11783079252                       # number of demand (read+write) miss cycles
system.cpu.dcache.overall_miss_latency::.cpu.data  11783079252                       # number of overall miss cycles
system.cpu.dcache.overall_miss_latency::total  11783079252                       # number of overall miss cycles
system.cpu.dcache.demand_accesses::.cpu.data     35626259                       # number of demand (read+write) accesses
system.cpu.dcache.demand_accesses::total     35626259                       # number of demand (read+write) accesses
system.cpu.dcache.overall_accesses::.cpu.data     35629671                       # number of overall (read+write) accesses
system.cpu.dcache.overall_accesses::total     35629671                       # number of overall (read+write) accesses
system.cpu.dcache.demand_miss_rate::.cpu.data     0.004152                       # miss rate for demand accesses
system.cpu.dcache.demand_miss_rate::total     0.004152                       # miss rate for demand accesses
system.cpu.dcache.overall_miss_rate::.cpu.data     0.004152                       # miss rate for overall accesses
system.cpu.dcache.overall_miss_rate::total     0.004152                       # miss rate for overall accesses
system.cpu.dcache.demand_avg_miss_latency::.cpu.data 79665.999026                       # average overall miss latency
system.cpu.dcache.demand_avg_miss_latency::total 79665.999026                       # average overall miss latency
system.cpu.dcache.overall_avg_miss_latency::.cpu.data 79643.921485                       # average overall miss latency
system.cpu.dcache.overall_avg_miss_latency::total 79643.921485                       # average overall miss latency
system.cpu.dcache.blocked_cycles::no_mshrs       113817                       # number of cycles access was blocked
system.cpu.dcache.blocked_cycles::no_targets            0                       # number of cycles access was blocked
system.cpu.dcache.blocked::no_mshrs               751                       # number of cycles access was blocked
system.cpu.dcache.blocked::no_targets               0                       # number of cycles access was blocked
system.cpu.dcache.avg_blocked_cycles::no_mshrs   151.553928                       # average number of cycles each access was blocked
system.cpu.dcache.avg_blocked_cycles::no_targets          nan                       # average number of cycles each access was blocked
system.cpu.dcache.writebacks::.writebacks        52300                       # number of writebacks
system.cpu.dcache.writebacks::total             52300                       # number of writebacks
system.cpu.dcache.demand_mshr_hits::.cpu.data        88207                       # number of demand (read+write) MSHR hits
system.cpu.dcache.demand_mshr_hits::total        88207                       # number of demand (read+write) MSHR hits
system.cpu.dcache.overall_mshr_hits::.cpu.data        88207                       # number of overall MSHR hits
system.cpu.dcache.overall_mshr_hits::total        88207                       # number of overall MSHR hits
system.cpu.dcache.demand_mshr_misses::.cpu.data        59699                       # number of demand (read+write) MSHR misses
system.cpu.dcache.demand_mshr_misses::total        59699                       # number of demand (read+write) MSHR misses
system.cpu.dcache.overall_mshr_misses::.cpu.data        59736                       # number of overall MSHR misses
system.cpu.dcache.overall_mshr_misses::total        59736                       # number of overall MSHR misses
system.cpu.dcache.demand_mshr_miss_latency::.cpu.data   4218620625                       # number of demand (read+write) MSHR miss cycles
system.cpu.dcache.demand_mshr_miss_latency::total   4218620625                       # number of demand (read+write) MSHR miss cycles
system.cpu.dcache.overall_mshr_miss_latency::.cpu.data   4220066875                       # number of overall MSHR miss cycles
system.cpu.dcache.overall_mshr_miss_latency::total   4220066875                       # number of overall MSHR miss cycles
system.cpu.dcache.demand_mshr_miss_rate::.cpu.data     0.001676                       # mshr miss rate for demand accesses
system.cpu.dcache.demand_mshr_miss_rate::total     0.001676                       # mshr miss rate for demand accesses
system.cpu.dcache.overall_mshr_miss_rate::.cpu.data     0.001677                       # mshr miss rate for overall accesses
system.cpu.dcache.overall_mshr_miss_rate::total     0.001677                       # mshr miss rate for overall accesses
system.cpu.dcache.demand_avg_mshr_miss_latency::.cpu.data 70664.845726                       # average overall mshr miss latency
system.cpu.dcache.demand_avg_mshr_miss_latency::total 70664.845726                       # average overall mshr miss latency
system.cpu.dcache.overall_avg_mshr_miss_latency::.cpu.data 70645.287180                       # average overall mshr miss latency
system.cpu.dcache.overall_avg_mshr_miss_latency::total 70645.287180                       # average overall mshr miss latency
system.cpu.dcache.replacements                  59226                       # number of replacements
system.cpu.dcache.ReadReq_hits::.cpu.data     20873091                       # number of ReadReq hits
system.cpu.dcache.ReadReq_hits::total        20873091                       # number of ReadReq hits
system.cpu.dcache.ReadReq_misses::.cpu.data        38118                       # number of ReadReq misses
system.cpu.dcache.ReadReq_misses::total         38118                       # number of ReadReq misses
system.cpu.dcache.ReadReq_miss_latency::.cpu.data   1849521250                       # number of ReadReq miss cycles
system.cpu.dcache.ReadReq_miss_latency::total   1849521250                       # number of ReadReq miss cycles
system.cpu.dcache.ReadReq_accesses::.cpu.data     20911209                       # number of ReadReq accesses(hits+misses)
system.cpu.dcache.ReadReq_accesses::total     20911209                       # number of ReadReq accesses(hits+misses)
system.cpu.dcache.ReadReq_miss_rate::.cpu.data     0.001823                       # miss rate for ReadReq accesses
system.cpu.dcache.ReadReq_miss_rate::total     0.001823                       # miss rate for ReadReq accesses
system.cpu.dcache.ReadReq_avg_miss_latency::.cpu.data 48520.941550                       # average ReadReq miss latency
system.cpu.dcache.ReadReq_avg_miss_latency::total 48520.941550                       # average ReadReq miss latency
system.cpu.dcache.ReadReq_mshr_hits::.cpu.data        17448                       # number of ReadReq MSHR hits
system.cpu.dcache.ReadReq_mshr_hits::total        17448                       # number of ReadReq MSHR hits
system.cpu.dcache.ReadReq_mshr_misses::.cpu.data        20670                       # number of ReadReq MSHR misses
system.cpu.dcache.ReadReq_mshr_misses::total        20670                       # number of ReadReq MSHR misses
system.cpu.dcache.ReadReq_mshr_miss_latency::.cpu.data    621855000                       # number of ReadReq MSHR miss cycles
system.cpu.dcache.ReadReq_mshr_miss_latency::total    621855000                       # number of ReadReq MSHR miss cycles
system.cpu.dcache.ReadReq_mshr_miss_rate::.cpu.data     0.000988                       # mshr miss rate for ReadReq accesses
system.cpu.dcache.ReadReq_mshr_miss_rate::total     0.000988                       # mshr miss rate for ReadReq accesses
system.cpu.dcache.ReadReq_avg_mshr_miss_latency::.cpu.data 30084.905660                       # average ReadReq mshr miss latency
system.cpu.dcache.ReadReq_avg_mshr_miss_latency::total 30084.905660                       # average ReadReq mshr miss latency
system.cpu.dcache.WriteReq_hits::.cpu.data     14605262                       # number of WriteReq hits
system.cpu.dcache.WriteReq_hits::total       14605262                       # number of WriteReq hits
system.cpu.dcache.WriteReq_misses::.cpu.data       109788                       # number of WriteReq misses
system.cpu.dcache.WriteReq_misses::total       109788                       # number of WriteReq misses
system.cpu.dcache.WriteReq_miss_latency::.cpu.data   9933558002                       # number of WriteReq miss cycles
system.cpu.dcache.WriteReq_miss_latency::total   9933558002                       # number of WriteReq miss cycles
system.cpu.dcache.WriteReq_accesses::.cpu.data     14715050                       # number of WriteReq accesses(hits+misses)
system.cpu.dcache.WriteReq_accesses::total     14715050                       # number of WriteReq accesses(hits+misses)
system.cpu.dcache.WriteReq_miss_rate::.cpu.data     0.007461                       # miss rate for WriteReq accesses
system.cpu.dcache.WriteReq_miss_rate::total     0.007461                       # miss rate for WriteReq accesses
system.cpu.dcache.WriteReq_avg_miss_latency::.cpu.data 90479.451324                       # average WriteReq miss latency
system.cpu.dcache.WriteReq_avg_miss_latency::total 90479.451324                       # average WriteReq miss latency
system.cpu.dcache.WriteReq_mshr_hits::.cpu.data        70759                       # number of WriteReq MSHR hits
system.cpu.dcache.WriteReq_mshr_hits::total        70759                       # number of WriteReq MSHR hits
system.cpu.dcache.WriteReq_mshr_misses::.cpu.data        39029                       # number of WriteReq MSHR misses
system.cpu.dcache.WriteReq_mshr_misses::total        39029                       # number of WriteReq MSHR misses
system.cpu.dcache.WriteReq_mshr_miss_latency::.cpu.data   3596765625                       # number of WriteReq MSHR miss cycles
system.cpu.dcache.WriteReq_mshr_miss_latency::total   3596765625                       # number of WriteReq MSHR miss cycles
system.cpu.dcache.WriteReq_mshr_miss_rate::.cpu.data     0.002652                       # mshr miss rate for WriteReq accesses
system.cpu.dcache.WriteReq_mshr_miss_rate::total     0.002652                       # mshr miss rate for WriteReq accesses
system.cpu.dcache.WriteReq_avg_mshr_miss_latency::.cpu.data 92156.233186                       # average WriteReq mshr miss latency
system.cpu.dcache.WriteReq_avg_mshr_miss_latency::total 92156.233186                       # average WriteReq mshr miss latency
system.cpu.dcache.SoftPFReq_hits::.cpu.data         3371                       # number of SoftPFReq hits
system.cpu.dcache.SoftPFReq_hits::total          3371                       # number of SoftPFReq hits
system.cpu.dcache.SoftPFReq_misses::.cpu.data           41                       # number of SoftPFReq misses
system.cpu.dcache.SoftPFReq_misses::total           41                       # number of SoftPFReq misses
system.cpu.dcache.SoftPFReq_accesses::.cpu.data         3412                       # number of SoftPFReq accesses(hits+misses)
system.cpu.dcache.SoftPFReq_accesses::total         3412                       # number of SoftPFReq accesses(hits+misses)
system.cpu.dcache.SoftPFReq_miss_rate::.cpu.data     0.012016                       # miss rate for SoftPFReq accesses
system.cpu.dcache.SoftPFReq_miss_rate::total     0.012016                       # miss rate for SoftPFReq accesses
system.cpu.dcache.SoftPFReq_mshr_misses::.cpu.data           37                       # number of SoftPFReq MSHR misses
system.cpu.dcache.SoftPFReq_mshr_misses::total           37                       # number of SoftPFReq MSHR misses
system.cpu.dcache.SoftPFReq_mshr_miss_latency::.cpu.data      1446250                       # number of SoftPFReq MSHR miss cycles
system.cpu.dcache.SoftPFReq_mshr_miss_latency::total      1446250                       # number of SoftPFReq MSHR miss cycles
system.cpu.dcache.SoftPFReq_mshr_miss_rate::.cpu.data     0.010844                       # mshr miss rate for SoftPFReq accesses
system.cpu.dcache.SoftPFReq_mshr_miss_rate::total     0.010844                       # mshr miss rate for SoftPFReq accesses
system.cpu.dcache.SoftPFReq_avg_mshr_miss_latency::.cpu.data 39087.837838                       # average SoftPFReq mshr miss latency
system.cpu.dcache.SoftPFReq_avg_mshr_miss_latency::total 39087.837838                       # average SoftPFReq mshr miss latency
system.cpu.dcache.LoadLockedReq_hits::.cpu.data        90059                       # number of LoadLockedReq hits
system.cpu.dcache.LoadLockedReq_hits::total        90059                       # number of LoadLockedReq hits
system.cpu.dcache.LoadLockedReq_misses::.cpu.data            4                       # number of LoadLockedReq misses
system.cpu.dcache.LoadLockedReq_misses::total            4                       # number of LoadLockedReq misses
system.cpu.dcache.LoadLockedReq_miss_latency::.cpu.data       326875                       # number of LoadLockedReq miss cycles
system.cpu.dcache.LoadLockedReq_miss_latency::total       326875                       # number of LoadLockedReq miss cycles
system.cpu.dcache.LoadLockedReq_accesses::.cpu.data        90063                       # number of LoadLockedReq accesses(hits+misses)
system.cpu.dcache.LoadLockedReq_accesses::total        90063                       # number of LoadLockedReq accesses(hits+misses)
system.cpu.dcache.LoadLockedReq_miss_rate::.cpu.data     0.000044                       # miss rate for LoadLockedReq accesses
system.cpu.dcache.LoadLockedReq_miss_rate::total     0.000044                       # miss rate for LoadLockedReq accesses
system.cpu.dcache.LoadLockedReq_avg_miss_latency::.cpu.data 81718.750000                       # average LoadLockedReq miss latency
system.cpu.dcache.LoadLockedReq_avg_miss_latency::total 81718.750000                       # average LoadLockedReq miss latency
system.cpu.dcache.LoadLockedReq_mshr_hits::.cpu.data            2                       # number of LoadLockedReq MSHR hits
system.cpu.dcache.LoadLockedReq_mshr_hits::total            2                       # number of LoadLockedReq MSHR hits
system.cpu.dcache.LoadLockedReq_mshr_misses::.cpu.data            2                       # number of LoadLockedReq MSHR misses
system.cpu.dcache.LoadLockedReq_mshr_misses::total            2                       # number of LoadLockedReq MSHR misses
system.cpu.dcache.LoadLockedReq_mshr_miss_latency::.cpu.data       155000                       # number of LoadLockedReq MSHR miss cycles
system.cpu.dcache.LoadLockedReq_mshr_miss_latency::total       155000                       # number of LoadLockedReq MSHR miss cycles
system.cpu.dcache.LoadLockedReq_mshr_miss_rate::.cpu.data     0.000022                       # mshr miss rate for LoadLockedReq accesses
system.cpu.dcache.LoadLockedReq_mshr_miss_rate::total     0.000022                       # mshr miss rate for LoadLockedReq accesses
system.cpu.dcache.LoadLockedReq_avg_mshr_miss_latency::.cpu.data        77500                       # average LoadLockedReq mshr miss latency
system.cpu.dcache.LoadLockedReq_avg_mshr_miss_latency::total        77500                       # average LoadLockedReq mshr miss latency
system.cpu.dcache.StoreCondReq_hits::.cpu.data        90057                       # number of StoreCondReq hits
system.cpu.dcache.StoreCondReq_hits::total        90057                       # number of StoreCondReq hits
system.cpu.dcache.StoreCondReq_accesses::.cpu.data        90057                       # number of StoreCondReq accesses(hits+misses)
system.cpu.dcache.StoreCondReq_accesses::total        90057                       # number of StoreCondReq accesses(hits+misses)
system.cpu.dcache.tags.pwrStateResidencyTicks::UNDEFINED  53007419375                       # Cumulative time (in ticks) in various power states
system.cpu.dcache.tags.tagsinuse           511.318954                       # Cycle average of tags in use
system.cpu.dcache.tags.total_refs            35721578                       # Total number of references to valid blocks.
system.cpu.dcache.tags.sampled_refs             59738                       # Sample count of references to valid blocks.
system.cpu.dcache.tags.avg_refs            597.970772                       # Average number of references to valid blocks.
system.cpu.dcache.tags.warmup_cycle            116875                       # Cycle when the warmup percentage was hit.
system.cpu.dcache.tags.occ_blocks::.cpu.data   511.318954                       # Average occupied blocks per requestor
system.cpu.dcache.tags.occ_percent::.cpu.data     0.998670                       # Average percentage of cache occupancy
system.cpu.dcache.tags.occ_percent::total     0.998670                       # Average percentage of cache occupancy
system.cpu.dcache.tags.occ_task_id_blocks::1024          512                       # Occupied blocks per task id
system.cpu.dcache.tags.age_task_id_blocks_1024::0           13                       # Occupied blocks per task id
system.cpu.dcache.tags.age_task_id_blocks_1024::1          115                       # Occupied blocks per task id
system.cpu.dcache.tags.age_task_id_blocks_1024::2          339                       # Occupied blocks per task id
system.cpu.dcache.tags.age_task_id_blocks_1024::3           12                       # Occupied blocks per task id
system.cpu.dcache.tags.age_task_id_blocks_1024::4           33                       # Occupied blocks per task id
system.cpu.dcache.tags.occ_task_id_percent::1024            1                       # Percentage of cache occupancy per task id
system.cpu.dcache.tags.tag_accesses         143298902                       # Number of tag accesses
system.cpu.dcache.tags.data_accesses        143298902                       # Number of data accesses

---------- End Simulation Statistics   ----------
