
---------- Begin Simulation Statistics ----------
final_tick                                59026213125                       # Number of ticks from beginning of simulation (restored from checkpoints and never reset)
host_inst_rate                                 123276                       # Simulator instruction rate (inst/s)
host_mem_usage                                 679140                       # Number of bytes of host memory used
host_op_rate                                   143822                       # Simulator op (including micro ops) rate (op/s)
host_seconds                                   811.18                       # Real time elapsed on the host
host_tick_rate                               72765421                       # Simulator tick rate (ticks/s)
sim_freq                                 1000000000000                       # Frequency of simulated ticks
sim_insts                                   100000000                       # Number of instructions simulated
sim_ops                                     116666628                       # Number of ops (including micro ops) simulated
sim_seconds                                  0.059026                       # Number of seconds simulated
sim_ticks                                 59026213125                       # Number of ticks simulated
system.cpu.branchPred.BTBCorrect                    0                       # Number of correct BTB predictions (this stat may not work properly.
system.cpu.branchPred.BTBHitPct             99.997168                       # BTB Hit Percentage
system.cpu.branchPred.BTBHits                16665577                       # Number of BTB hits
system.cpu.branchPred.BTBLookups             16666049                       # Number of BTB lookups
system.cpu.branchPred.RASInCorrect                  2                       # Number of incorrect RAS predictions.
system.cpu.branchPred.condIncorrect               721                       # Number of conditional branches incorrect
system.cpu.branchPred.condPredicted          16667473                       # Number of conditional branches predicted
system.cpu.branchPred.indirectHits                  7                       # Number of indirect target hits.
system.cpu.branchPred.indirectLookups              82                       # Number of indirect predictor lookups.
system.cpu.branchPred.indirectMisses               75                       # Number of indirect misses.
system.cpu.branchPred.lookups                16668561                       # Number of BP lookups
system.cpu.branchPred.usedRAS                     313                       # Number of times the RAS was used to get a target.
system.cpu.branchPredindirectMispredicted           55                       # Number of mispredicted indirect branches.
system.cpu.cc_regfile_reads                 400007084                       # number of cc regfile reads
system.cpu.cc_regfile_writes                 99996974                       # number of cc regfile writes
system.cpu.commit.amos                              0                       # Number of atomic instructions committed
system.cpu.commit.branchMispredicts               487                       # The number of times a branch was mispredicted
system.cpu.commit.branches                   16666881                       # Number of branches committed
system.cpu.commit.bw_lim_events                   124                       # number cycles where commit BW limit reached
system.cpu.commit.commitNonSpecStalls              84                       # The number of times commit has been forced to stall to communicate backwards
system.cpu.commit.commitSquashedInsts            3389                       # The number of squashed insts skipped by commit
system.cpu.commit.committedInsts            100000013                       # Number of instructions committed
system.cpu.commit.committedOps              116666641                       # Number of ops (including micro ops) committed
system.cpu.commit.committed_per_cycle::samples     94411190                       # Number of insts commited each cycle
system.cpu.commit.committed_per_cycle::mean     1.235729                       # Number of insts commited each cycle
system.cpu.commit.committed_per_cycle::stdev     1.381464                       # Number of insts commited each cycle
system.cpu.commit.committed_per_cycle::underflows            0      0.00%      0.00% # Number of insts commited each cycle
system.cpu.commit.committed_per_cycle::0     28596585     30.29%     30.29% # Number of insts commited each cycle
system.cpu.commit.committed_per_cycle::1     49146863     52.06%     82.35% # Number of insts commited each cycle
system.cpu.commit.committed_per_cycle::2         1432      0.00%     82.35% # Number of insts commited each cycle
system.cpu.commit.committed_per_cycle::3        71418      0.08%     82.42% # Number of insts commited each cycle
system.cpu.commit.committed_per_cycle::4     16030526     16.98%     99.40% # Number of insts commited each cycle
system.cpu.commit.committed_per_cycle::5       209435      0.22%     99.62% # Number of insts commited each cycle
system.cpu.commit.committed_per_cycle::6       351260      0.37%    100.00% # Number of insts commited each cycle
system.cpu.commit.committed_per_cycle::7         3547      0.00%    100.00% # Number of insts commited each cycle
system.cpu.commit.committed_per_cycle::8          124      0.00%    100.00% # Number of insts commited each cycle
system.cpu.commit.committed_per_cycle::overflows            0      0.00%    100.00% # Number of insts commited each cycle
system.cpu.commit.committed_per_cycle::min_value            0                       # Number of insts commited each cycle
system.cpu.commit.committed_per_cycle::max_value            8                       # Number of insts commited each cycle
system.cpu.commit.committed_per_cycle::total     94411190                       # Number of insts commited each cycle
system.cpu.commit.fp_insts                          0                       # Number of committed floating point instructions.
system.cpu.commit.function_calls                  172                       # Number of function calls committed.
system.cpu.commit.int_insts                  99999939                       # Number of committed integer instructions.
system.cpu.commit.loads                      16666767                       # Number of loads committed
system.cpu.commit.membars                          37                       # Number of memory barriers committed
system.cpu.commit.op_class_0::No_OpClass            0      0.00%      0.00% # Class of committed instruction
system.cpu.commit.op_class_0::IntAlu         83332776     71.43%     71.43% # Class of committed instruction
system.cpu.commit.op_class_0::IntMult              43      0.00%     71.43% # Class of committed instruction
system.cpu.commit.op_class_0::IntDiv                0      0.00%     71.43% # Class of committed instruction
system.cpu.commit.op_class_0::FloatAdd              0      0.00%     71.43% # Class of committed instruction
system.cpu.commit.op_class_0::FloatCmp              0      0.00%     71.43% # Class of committed instruction
system.cpu.commit.op_class_0::FloatCvt              0      0.00%     71.43% # Class of committed instruction
system.cpu.commit.op_class_0::FloatMult             0      0.00%     71.43% # Class of committed instruction
system.cpu.commit.op_class_0::FloatMultAcc            0      0.00%     71.43% # Class of committed instruction
system.cpu.commit.op_class_0::FloatDiv              0      0.00%     71.43% # Class of committed instruction
system.cpu.commit.op_class_0::FloatMisc             0      0.00%     71.43% # Class of committed instruction
system.cpu.commit.op_class_0::FloatSqrt             0      0.00%     71.43% # Class of committed instruction
system.cpu.commit.op_class_0::SimdAdd               0      0.00%     71.43% # Class of committed instruction
system.cpu.commit.op_class_0::SimdAddAcc            0      0.00%     71.43% # Class of committed instruction
system.cpu.commit.op_class_0::SimdAlu               0      0.00%     71.43% # Class of committed instruction
system.cpu.commit.op_class_0::SimdCmp               0      0.00%     71.43% # Class of committed instruction
system.cpu.commit.op_class_0::SimdCvt               0      0.00%     71.43% # Class of committed instruction
system.cpu.commit.op_class_0::SimdMisc              0      0.00%     71.43% # Class of committed instruction
system.cpu.commit.op_class_0::SimdMult              0      0.00%     71.43% # Class of committed instruction
system.cpu.commit.op_class_0::SimdMultAcc            0      0.00%     71.43% # Class of committed instruction
system.cpu.commit.op_class_0::SimdShift             0      0.00%     71.43% # Class of committed instruction
system.cpu.commit.op_class_0::SimdShiftAcc            0      0.00%     71.43% # Class of committed instruction
system.cpu.commit.op_class_0::SimdDiv               0      0.00%     71.43% # Class of committed instruction
system.cpu.commit.op_class_0::SimdSqrt              0      0.00%     71.43% # Class of committed instruction
system.cpu.commit.op_class_0::SimdFloatAdd            8      0.00%     71.43% # Class of committed instruction
system.cpu.commit.op_class_0::SimdFloatAlu            0      0.00%     71.43% # Class of committed instruction
system.cpu.commit.op_class_0::SimdFloatCmp            9      0.00%     71.43% # Class of committed instruction
system.cpu.commit.op_class_0::SimdFloatCvt            7      0.00%     71.43% # Class of committed instruction
system.cpu.commit.op_class_0::SimdFloatDiv            3      0.00%     71.43% # Class of committed instruction
system.cpu.commit.op_class_0::SimdFloatMisc           30      0.00%     71.43% # Class of committed instruction
system.cpu.commit.op_class_0::SimdFloatMult           19      0.00%     71.43% # Class of committed instruction
system.cpu.commit.op_class_0::SimdFloatMultAcc            6      0.00%     71.43% # Class of committed instruction
system.cpu.commit.op_class_0::SimdFloatSqrt            0      0.00%     71.43% # Class of committed instruction
system.cpu.commit.op_class_0::SimdReduceAdd            0      0.00%     71.43% # Class of committed instruction
system.cpu.commit.op_class_0::SimdReduceAlu            0      0.00%     71.43% # Class of committed instruction
system.cpu.commit.op_class_0::SimdReduceCmp            0      0.00%     71.43% # Class of committed instruction
system.cpu.commit.op_class_0::SimdFloatReduceAdd            0      0.00%     71.43% # Class of committed instruction
system.cpu.commit.op_class_0::SimdFloatReduceCmp            0      0.00%     71.43% # Class of committed instruction
system.cpu.commit.op_class_0::SimdAes               0      0.00%     71.43% # Class of committed instruction
system.cpu.commit.op_class_0::SimdAesMix            0      0.00%     71.43% # Class of committed instruction
system.cpu.commit.op_class_0::SimdSha1Hash            0      0.00%     71.43% # Class of committed instruction
system.cpu.commit.op_class_0::SimdSha1Hash2            0      0.00%     71.43% # Class of committed instruction
system.cpu.commit.op_class_0::SimdSha256Hash            0      0.00%     71.43% # Class of committed instruction
system.cpu.commit.op_class_0::SimdSha256Hash2            0      0.00%     71.43% # Class of committed instruction
system.cpu.commit.op_class_0::SimdShaSigma2            0      0.00%     71.43% # Class of committed instruction
system.cpu.commit.op_class_0::SimdShaSigma3            0      0.00%     71.43% # Class of committed instruction
system.cpu.commit.op_class_0::SimdPredAlu            0      0.00%     71.43% # Class of committed instruction
system.cpu.commit.op_class_0::MemRead        16666767     14.29%     85.71% # Class of committed instruction
system.cpu.commit.op_class_0::MemWrite       16666973     14.29%    100.00% # Class of committed instruction
system.cpu.commit.op_class_0::FloatMemRead            0      0.00%    100.00% # Class of committed instruction
system.cpu.commit.op_class_0::FloatMemWrite            0      0.00%    100.00% # Class of committed instruction
system.cpu.commit.op_class_0::IprAccess             0      0.00%    100.00% # Class of committed instruction
system.cpu.commit.op_class_0::InstPrefetch            0      0.00%    100.00% # Class of committed instruction
system.cpu.commit.op_class_0::total         116666641                       # Class of committed instruction
system.cpu.commit.refs                       33333740                       # Number of memory references committed
system.cpu.commit.swp_count                         0                       # Number of s/w prefetches committed
system.cpu.commit.vec_insts                         0                       # Number of committed Vector instructions.
system.cpu.committedInsts                   100000000                       # Number of Instructions Simulated
system.cpu.committedOps                     116666628                       # Number of Ops (including micro ops) Simulated
system.cpu.cpi                               0.944419                       # CPI: Cycles Per Instruction
system.cpu.cpi_total                         0.944419                       # CPI: Total CPI of All Threads
system.cpu.decode.BlockedCycles              12556272                       # Number of cycles decode is blocked
system.cpu.decode.BranchMispred                   246                       # Number of times decode detected a branch misprediction
system.cpu.decode.BranchResolved             16665755                       # Number of times decode resolved a branch
system.cpu.decode.DecodedInsts              116672597                       # Number of instructions handled by decode
system.cpu.decode.IdleCycles                 32277971                       # Number of cycles decode is idle
system.cpu.decode.RunCycles                  49435116                       # Number of cycles decode is running
system.cpu.decode.SquashCycles                    520                       # Number of cycles decode is squashing
system.cpu.decode.SquashedInsts                  1954                       # Number of squashed instructions handled by decode
system.cpu.decode.UnblockCycles                142024                       # Number of cycles decode is unblocking
system.cpu.dtb.accesses                             0                       # DTB accesses
system.cpu.dtb.align_faults                         0                       # Number of TLB faults due to alignment restrictions
system.cpu.dtb.domain_faults                        0                       # Number of TLB faults due to domain restrictions
system.cpu.dtb.flush_entries                        0                       # Number of entries that have been flushed from TLB
system.cpu.dtb.flush_tlb                            0                       # Number of times complete TLB was flushed
system.cpu.dtb.flush_tlb_asid                       0                       # Number of times TLB was flushed by ASID
system.cpu.dtb.flush_tlb_mva                        0                       # Number of times TLB was flushed by MVA
system.cpu.dtb.flush_tlb_mva_asid                   0                       # Number of times TLB was flushed by MVA & ASID
system.cpu.dtb.hits                                 0                       # DTB hits
system.cpu.dtb.inst_accesses                        0                       # ITB inst accesses
system.cpu.dtb.inst_hits                            0                       # ITB inst hits
system.cpu.dtb.inst_misses                          0                       # ITB inst misses
system.cpu.dtb.misses                               0                       # DTB misses
system.cpu.dtb.perms_faults                         0                       # Number of TLB faults due to permissions restrictions
system.cpu.dtb.prefetch_faults                      0                       # Number of TLB faults due to prefetch
system.cpu.dtb.read_accesses                        0                       # DTB read accesses
system.cpu.dtb.read_hits                            0                       # DTB read hits
system.cpu.dtb.read_misses                          0                       # DTB read misses
system.cpu.dtb.stage2_mmu.stage2_tlb.accesses            0                       # DTB accesses
system.cpu.dtb.stage2_mmu.stage2_tlb.align_faults            0                       # Number of TLB faults due to alignment restrictions
system.cpu.dtb.stage2_mmu.stage2_tlb.domain_faults            0                       # Number of TLB faults due to domain restrictions
system.cpu.dtb.stage2_mmu.stage2_tlb.flush_entries            0                       # Number of entries that have been flushed from TLB
system.cpu.dtb.stage2_mmu.stage2_tlb.flush_tlb            0                       # Number of times complete TLB was flushed
system.cpu.dtb.stage2_mmu.stage2_tlb.flush_tlb_asid            0                       # Number of times TLB was flushed by ASID
system.cpu.dtb.stage2_mmu.stage2_tlb.flush_tlb_mva            0                       # Number of times TLB was flushed by MVA
system.cpu.dtb.stage2_mmu.stage2_tlb.flush_tlb_mva_asid            0                       # Number of times TLB was flushed by MVA & ASID
system.cpu.dtb.stage2_mmu.stage2_tlb.hits            0                       # DTB hits
system.cpu.dtb.stage2_mmu.stage2_tlb.inst_accesses            0                       # ITB inst accesses
system.cpu.dtb.stage2_mmu.stage2_tlb.inst_hits            0                       # ITB inst hits
system.cpu.dtb.stage2_mmu.stage2_tlb.inst_misses            0                       # ITB inst misses
system.cpu.dtb.stage2_mmu.stage2_tlb.misses            0                       # DTB misses
system.cpu.dtb.stage2_mmu.stage2_tlb.perms_faults            0                       # Number of TLB faults due to permissions restrictions
system.cpu.dtb.stage2_mmu.stage2_tlb.prefetch_faults            0                       # Number of TLB faults due to prefetch
system.cpu.dtb.stage2_mmu.stage2_tlb.read_accesses            0                       # DTB read accesses
system.cpu.dtb.stage2_mmu.stage2_tlb.read_hits            0                       # DTB read hits
system.cpu.dtb.stage2_mmu.stage2_tlb.read_misses            0                       # DTB read misses
system.cpu.dtb.stage2_mmu.stage2_tlb.walker.walkRequestOrigin_Requested::Data            0                       # Table walker requests started/completed, data/inst
system.cpu.dtb.stage2_mmu.stage2_tlb.walker.walkRequestOrigin_Requested::Inst            0                       # Table walker requests started/completed, data/inst
system.cpu.dtb.stage2_mmu.stage2_tlb.walker.walkRequestOrigin_Requested::total            0                       # Table walker requests started/completed, data/inst
system.cpu.dtb.stage2_mmu.stage2_tlb.walker.walkRequestOrigin_Completed::Data            0                       # Table walker requests started/completed, data/inst
system.cpu.dtb.stage2_mmu.stage2_tlb.walker.walkRequestOrigin_Completed::Inst            0                       # Table walker requests started/completed, data/inst
system.cpu.dtb.stage2_mmu.stage2_tlb.walker.walkRequestOrigin_Completed::total            0                       # Table walker requests started/completed, data/inst
system.cpu.dtb.stage2_mmu.stage2_tlb.walker.walkRequestOrigin::total            0                       # Table walker requests started/completed, data/inst
system.cpu.dtb.stage2_mmu.stage2_tlb.walker.walks            0                       # Table walker walks requested
system.cpu.dtb.stage2_mmu.stage2_tlb.write_accesses            0                       # DTB write accesses
system.cpu.dtb.stage2_mmu.stage2_tlb.write_hits            0                       # DTB write hits
system.cpu.dtb.stage2_mmu.stage2_tlb.write_misses            0                       # DTB write misses
system.cpu.dtb.walker.walkRequestOrigin_Requested::Data            0                       # Table walker requests started/completed, data/inst
system.cpu.dtb.walker.walkRequestOrigin_Requested::Inst            0                       # Table walker requests started/completed, data/inst
system.cpu.dtb.walker.walkRequestOrigin_Requested::total            0                       # Table walker requests started/completed, data/inst
system.cpu.dtb.walker.walkRequestOrigin_Completed::Data            0                       # Table walker requests started/completed, data/inst
system.cpu.dtb.walker.walkRequestOrigin_Completed::Inst            0                       # Table walker requests started/completed, data/inst
system.cpu.dtb.walker.walkRequestOrigin_Completed::total            0                       # Table walker requests started/completed, data/inst
system.cpu.dtb.walker.walkRequestOrigin::total            0                       # Table walker requests started/completed, data/inst
system.cpu.dtb.walker.walks                         0                       # Table walker walks requested
system.cpu.dtb.write_accesses                       0                       # DTB write accesses
system.cpu.dtb.write_hits                           0                       # DTB write hits
system.cpu.dtb.write_misses                         0                       # DTB write misses
system.cpu.fetch.Branches                    16668561                       # Number of branches that fetch encountered
system.cpu.fetch.CacheLines                  33334927                       # Number of cache lines fetched
system.cpu.fetch.Cycles                      61067279                       # Number of cycles fetch has run and was not squashing or blocked
system.cpu.fetch.IcacheSquashes                   358                       # Number of outstanding Icache misses that were squashed
system.cpu.fetch.IcacheWaitRetryStallCycles            4                       # Number of stall cycles due to full MSHR
system.cpu.fetch.Insts                      100009154                       # Number of instructions fetch has processed
system.cpu.fetch.MiscStallCycles                   41                       # Number of cycles fetch has spent waiting on interrupts, or bad addresses, or out of MSHRs
system.cpu.fetch.SquashCycles                    1508                       # Number of cycles fetch has spent squashing
system.cpu.fetch.branchRate                  0.176495                       # Number of branch fetches per cycle
system.cpu.fetch.icacheStallCycles           33343825                       # Number of cycles fetch is stalled on an Icache miss
system.cpu.fetch.predictedBranches           16665897                       # Number of branches that fetch has predicted taken
system.cpu.fetch.rate                        1.058949                       # Number of inst fetches per cycle
system.cpu.fetch.rateDist::samples           94411903                       # Number of instructions fetched each cycle (Total)
system.cpu.fetch.rateDist::mean              1.235827                       # Number of instructions fetched each cycle (Total)
system.cpu.fetch.rateDist::stdev             1.351711                       # Number of instructions fetched each cycle (Total)
system.cpu.fetch.rateDist::underflows               0      0.00%      0.00% # Number of instructions fetched each cycle (Total)
system.cpu.fetch.rateDist::0                 44408225     47.04%     47.04% # Number of instructions fetched each cycle (Total)
system.cpu.fetch.rateDist::1                 16666408     17.65%     64.69% # Number of instructions fetched each cycle (Total)
system.cpu.fetch.rateDist::2                     1480      0.00%     64.69% # Number of instructions fetched each cycle (Total)
system.cpu.fetch.rateDist::3                 33335790     35.31%    100.00% # Number of instructions fetched each cycle (Total)
system.cpu.fetch.rateDist::overflows                0      0.00%    100.00% # Number of instructions fetched each cycle (Total)
system.cpu.fetch.rateDist::min_value                0                       # Number of instructions fetched each cycle (Total)
system.cpu.fetch.rateDist::max_value                3                       # Number of instructions fetched each cycle (Total)
system.cpu.fetch.rateDist::total             94411903                       # Number of instructions fetched each cycle (Total)
system.cpu.idleCycles                           30039                       # Total number of cycles that the CPU has spent unscheduled due to idling
system.cpu.iew.branchMispredicts                  507                       # Number of branch mispredicts detected at execute
system.cpu.iew.exec_branches                 16667172                       # Number of branches executed
system.cpu.iew.exec_nop                            35                       # number of nop insts executed
system.cpu.iew.exec_rate                     1.235349                       # Inst execution rate
system.cpu.iew.exec_refs                     33334521                       # number of memory reference insts executed
system.cpu.iew.exec_stores                   16667145                       # Number of stores executed
system.cpu.iew.exec_swp                             0                       # number of swp insts executed
system.cpu.iew.iewBlockCycles                     398                       # Number of cycles IEW is blocking
system.cpu.iew.iewDispLoadInsts              16667693                       # Number of dispatched load instructions
system.cpu.iew.iewDispNonSpecInsts                 68                       # Number of dispatched non-speculative instructions
system.cpu.iew.iewDispSquashedInsts                 0                       # Number of squashed instructions skipped by dispatch
system.cpu.iew.iewDispStoreInsts             16667485                       # Number of dispatched store instructions
system.cpu.iew.iewDispatchedInsts           116670707                       # Number of instructions dispatched to IQ
system.cpu.iew.iewExecLoadInsts              16667376                       # Number of load instructions executed
system.cpu.iew.iewExecSquashedInsts               716                       # Number of squashed instructions skipped in execute
system.cpu.iew.iewExecutedInsts             116668719                       # Number of executed instructions
system.cpu.iew.iewIQFullEvents                      1                       # Number of times the IQ has become full, causing a stall
system.cpu.iew.iewIdleCycles                        0                       # Number of cycles IEW is idle
system.cpu.iew.iewLSQFullEvents                     0                       # Number of times the LSQ has become full, causing a stall
system.cpu.iew.iewSquashCycles                    520                       # Number of cycles IEW is squashing
system.cpu.iew.iewUnblockCycles                     3                       # Number of cycles IEW is unblocking
system.cpu.iew.lsq.thread0.blockedLoads             0                       # Number of blocked loads due to partial load-store forwarding
system.cpu.iew.lsq.thread0.cacheBlocked             0                       # Number of times an access to memory failed due to the cache being blocked
system.cpu.iew.lsq.thread0.forwLoads               44                       # Number of loads that had data forwarded from stores
system.cpu.iew.lsq.thread0.ignoredResponses            5                       # Number of memory responses ignored because the instruction is squashed
system.cpu.iew.lsq.thread0.invAddrLoads             0                       # Number of loads ignored due to an invalid address
system.cpu.iew.lsq.thread0.invAddrSwpfs             0                       # Number of software prefetches ignored due to an invalid address
system.cpu.iew.lsq.thread0.memOrderViolation           22                       # Number of memory ordering violations
system.cpu.iew.lsq.thread0.rescheduledLoads            4                       # Number of loads that were rescheduled
system.cpu.iew.lsq.thread0.squashedLoads          925                       # Number of loads squashed
system.cpu.iew.lsq.thread0.squashedStores          511                       # Number of stores squashed
system.cpu.iew.memOrderViolationEvents             22                       # Number of memory order violations
system.cpu.iew.predictedNotTakenIncorrect          497                       # Number of branches that were predicted not taken incorrectly
system.cpu.iew.predictedTakenIncorrect             10                       # Number of branches that were predicted taken incorrectly
system.cpu.iew.wb_consumers                  68711982                       # num instructions consuming a value
system.cpu.iew.wb_count                     116668456                       # cumulative count of insts written-back
system.cpu.iew.wb_fanout                     0.744101                       # average fanout of values written-back
system.cpu.iew.wb_producers                  51128684                       # num instructions producing a value
system.cpu.iew.wb_rate                       1.235346                       # insts written-back per cycle
system.cpu.iew.wb_sent                      116668552                       # cumulative count of insts sent to commit
system.cpu.int_regfile_reads                149999585                       # number of integer regfile reads
system.cpu.int_regfile_writes                66668105                       # number of integer regfile writes
system.cpu.ipc                               1.058852                       # IPC: Instructions Per Cycle
system.cpu.ipc_total                         1.058852                       # IPC: Total IPC of All Threads
system.cpu.iq.FU_type_0::No_OpClass                 0      0.00%      0.00% # Type of FU issued
system.cpu.iq.FU_type_0::IntAlu              83334469     71.43%     71.43% # Type of FU issued
system.cpu.iq.FU_type_0::IntMult                   51      0.00%     71.43% # Type of FU issued
system.cpu.iq.FU_type_0::IntDiv                     0      0.00%     71.43% # Type of FU issued
system.cpu.iq.FU_type_0::FloatAdd                   0      0.00%     71.43% # Type of FU issued
system.cpu.iq.FU_type_0::FloatCmp                   0      0.00%     71.43% # Type of FU issued
system.cpu.iq.FU_type_0::FloatCvt                   0      0.00%     71.43% # Type of FU issued
system.cpu.iq.FU_type_0::FloatMult                  0      0.00%     71.43% # Type of FU issued
system.cpu.iq.FU_type_0::FloatMultAcc               0      0.00%     71.43% # Type of FU issued
system.cpu.iq.FU_type_0::FloatDiv                   0      0.00%     71.43% # Type of FU issued
system.cpu.iq.FU_type_0::FloatMisc                  0      0.00%     71.43% # Type of FU issued
system.cpu.iq.FU_type_0::FloatSqrt                  0      0.00%     71.43% # Type of FU issued
system.cpu.iq.FU_type_0::SimdAdd                    5      0.00%     71.43% # Type of FU issued
system.cpu.iq.FU_type_0::SimdAddAcc                 0      0.00%     71.43% # Type of FU issued
system.cpu.iq.FU_type_0::SimdAlu                    0      0.00%     71.43% # Type of FU issued
system.cpu.iq.FU_type_0::SimdCmp                    0      0.00%     71.43% # Type of FU issued
system.cpu.iq.FU_type_0::SimdCvt                    0      0.00%     71.43% # Type of FU issued
system.cpu.iq.FU_type_0::SimdMisc                   0      0.00%     71.43% # Type of FU issued
system.cpu.iq.FU_type_0::SimdMult                   0      0.00%     71.43% # Type of FU issued
system.cpu.iq.FU_type_0::SimdMultAcc                0      0.00%     71.43% # Type of FU issued
system.cpu.iq.FU_type_0::SimdShift                  5      0.00%     71.43% # Type of FU issued
system.cpu.iq.FU_type_0::SimdShiftAcc               0      0.00%     71.43% # Type of FU issued
system.cpu.iq.FU_type_0::SimdDiv                    0      0.00%     71.43% # Type of FU issued
system.cpu.iq.FU_type_0::SimdSqrt                   0      0.00%     71.43% # Type of FU issued
system.cpu.iq.FU_type_0::SimdFloatAdd               8      0.00%     71.43% # Type of FU issued
system.cpu.iq.FU_type_0::SimdFloatAlu               0      0.00%     71.43% # Type of FU issued
system.cpu.iq.FU_type_0::SimdFloatCmp               9      0.00%     71.43% # Type of FU issued
system.cpu.iq.FU_type_0::SimdFloatCvt               7      0.00%     71.43% # Type of FU issued
system.cpu.iq.FU_type_0::SimdFloatDiv               3      0.00%     71.43% # Type of FU issued
system.cpu.iq.FU_type_0::SimdFloatMisc             35      0.00%     71.43% # Type of FU issued
system.cpu.iq.FU_type_0::SimdFloatMult             19      0.00%     71.43% # Type of FU issued
system.cpu.iq.FU_type_0::SimdFloatMultAcc            6      0.00%     71.43% # Type of FU issued
system.cpu.iq.FU_type_0::SimdFloatSqrt              0      0.00%     71.43% # Type of FU issued
system.cpu.iq.FU_type_0::SimdReduceAdd              0      0.00%     71.43% # Type of FU issued
system.cpu.iq.FU_type_0::SimdReduceAlu              0      0.00%     71.43% # Type of FU issued
system.cpu.iq.FU_type_0::SimdReduceCmp              0      0.00%     71.43% # Type of FU issued
system.cpu.iq.FU_type_0::SimdFloatReduceAdd            0      0.00%     71.43% # Type of FU issued
system.cpu.iq.FU_type_0::SimdFloatReduceCmp            0      0.00%     71.43% # Type of FU issued
system.cpu.iq.FU_type_0::SimdAes                    0      0.00%     71.43% # Type of FU issued
system.cpu.iq.FU_type_0::SimdAesMix                 0      0.00%     71.43% # Type of FU issued
system.cpu.iq.FU_type_0::SimdSha1Hash               0      0.00%     71.43% # Type of FU issued
system.cpu.iq.FU_type_0::SimdSha1Hash2              0      0.00%     71.43% # Type of FU issued
system.cpu.iq.FU_type_0::SimdSha256Hash             0      0.00%     71.43% # Type of FU issued
system.cpu.iq.FU_type_0::SimdSha256Hash2            0      0.00%     71.43% # Type of FU issued
system.cpu.iq.FU_type_0::SimdShaSigma2              0      0.00%     71.43% # Type of FU issued
system.cpu.iq.FU_type_0::SimdShaSigma3              0      0.00%     71.43% # Type of FU issued
system.cpu.iq.FU_type_0::SimdPredAlu                0      0.00%     71.43% # Type of FU issued
system.cpu.iq.FU_type_0::MemRead             16667556     14.29%     85.71% # Type of FU issued
system.cpu.iq.FU_type_0::MemWrite            16667262     14.29%    100.00% # Type of FU issued
system.cpu.iq.FU_type_0::FloatMemRead               0      0.00%    100.00% # Type of FU issued
system.cpu.iq.FU_type_0::FloatMemWrite              0      0.00%    100.00% # Type of FU issued
system.cpu.iq.FU_type_0::IprAccess                  0      0.00%    100.00% # Type of FU issued
system.cpu.iq.FU_type_0::InstPrefetch               0      0.00%    100.00% # Type of FU issued
system.cpu.iq.FU_type_0::total              116669435                       # Type of FU issued
system.cpu.iq.fp_alu_accesses                       0                       # Number of floating point alu accesses
system.cpu.iq.fp_inst_queue_reads                   0                       # Number of floating instruction queue reads
system.cpu.iq.fp_inst_queue_wakeup_accesses            0                       # Number of floating instruction queue wakeup accesses
system.cpu.iq.fp_inst_queue_writes                  0                       # Number of floating instruction queue writes
system.cpu.iq.fu_busy_cnt                     1343484                       # FU busy when requested
system.cpu.iq.fu_busy_rate                   0.011515                       # FU busy rate (busy events/executed inst)
system.cpu.iq.fu_full::No_OpClass                   0      0.00%      0.00% # attempts to use FU when none available
system.cpu.iq.fu_full::IntAlu                 1341699     99.87%     99.87% # attempts to use FU when none available
system.cpu.iq.fu_full::IntMult                      1      0.00%     99.87% # attempts to use FU when none available
system.cpu.iq.fu_full::IntDiv                       0      0.00%     99.87% # attempts to use FU when none available
system.cpu.iq.fu_full::FloatAdd                     0      0.00%     99.87% # attempts to use FU when none available
system.cpu.iq.fu_full::FloatCmp                     0      0.00%     99.87% # attempts to use FU when none available
system.cpu.iq.fu_full::FloatCvt                     0      0.00%     99.87% # attempts to use FU when none available
system.cpu.iq.fu_full::FloatMult                    0      0.00%     99.87% # attempts to use FU when none available
system.cpu.iq.fu_full::FloatMultAcc                 0      0.00%     99.87% # attempts to use FU when none available
system.cpu.iq.fu_full::FloatDiv                     0      0.00%     99.87% # attempts to use FU when none available
system.cpu.iq.fu_full::FloatMisc                    0      0.00%     99.87% # attempts to use FU when none available
system.cpu.iq.fu_full::FloatSqrt                    0      0.00%     99.87% # attempts to use FU when none available
system.cpu.iq.fu_full::SimdAdd                      0      0.00%     99.87% # attempts to use FU when none available
system.cpu.iq.fu_full::SimdAddAcc                   0      0.00%     99.87% # attempts to use FU when none available
system.cpu.iq.fu_full::SimdAlu                      0      0.00%     99.87% # attempts to use FU when none available
system.cpu.iq.fu_full::SimdCmp                      0      0.00%     99.87% # attempts to use FU when none available
system.cpu.iq.fu_full::SimdCvt                      0      0.00%     99.87% # attempts to use FU when none available
system.cpu.iq.fu_full::SimdMisc                     0      0.00%     99.87% # attempts to use FU when none available
system.cpu.iq.fu_full::SimdMult                     0      0.00%     99.87% # attempts to use FU when none available
system.cpu.iq.fu_full::SimdMultAcc                  0      0.00%     99.87% # attempts to use FU when none available
system.cpu.iq.fu_full::SimdShift                    0      0.00%     99.87% # attempts to use FU when none available
system.cpu.iq.fu_full::SimdShiftAcc                 0      0.00%     99.87% # attempts to use FU when none available
system.cpu.iq.fu_full::SimdDiv                      0      0.00%     99.87% # attempts to use FU when none available
system.cpu.iq.fu_full::SimdSqrt                     0      0.00%     99.87% # attempts to use FU when none available
system.cpu.iq.fu_full::SimdFloatAdd                 0      0.00%     99.87% # attempts to use FU when none available
system.cpu.iq.fu_full::SimdFloatAlu                 0      0.00%     99.87% # attempts to use FU when none available
system.cpu.iq.fu_full::SimdFloatCmp                 0      0.00%     99.87% # attempts to use FU when none available
system.cpu.iq.fu_full::SimdFloatCvt                 0      0.00%     99.87% # attempts to use FU when none available
system.cpu.iq.fu_full::SimdFloatDiv                 0      0.00%     99.87% # attempts to use FU when none available
system.cpu.iq.fu_full::SimdFloatMisc                2      0.00%     99.87% # attempts to use FU when none available
system.cpu.iq.fu_full::SimdFloatMult                0      0.00%     99.87% # attempts to use FU when none available
system.cpu.iq.fu_full::SimdFloatMultAcc             0      0.00%     99.87% # attempts to use FU when none available
system.cpu.iq.fu_full::SimdFloatSqrt                0      0.00%     99.87% # attempts to use FU when none available
system.cpu.iq.fu_full::SimdReduceAdd                0      0.00%     99.87% # attempts to use FU when none available
system.cpu.iq.fu_full::SimdReduceAlu                0      0.00%     99.87% # attempts to use FU when none available
system.cpu.iq.fu_full::SimdReduceCmp                0      0.00%     99.87% # attempts to use FU when none available
system.cpu.iq.fu_full::SimdFloatReduceAdd            0      0.00%     99.87% # attempts to use FU when none available
system.cpu.iq.fu_full::SimdFloatReduceCmp            0      0.00%     99.87% # attempts to use FU when none available
system.cpu.iq.fu_full::SimdAes                      0      0.00%     99.87% # attempts to use FU when none available
system.cpu.iq.fu_full::SimdAesMix                   0      0.00%     99.87% # attempts to use FU when none available
system.cpu.iq.fu_full::SimdSha1Hash                 0      0.00%     99.87% # attempts to use FU when none available
system.cpu.iq.fu_full::SimdSha1Hash2                0      0.00%     99.87% # attempts to use FU when none available
system.cpu.iq.fu_full::SimdSha256Hash               0      0.00%     99.87% # attempts to use FU when none available
system.cpu.iq.fu_full::SimdSha256Hash2              0      0.00%     99.87% # attempts to use FU when none available
system.cpu.iq.fu_full::SimdShaSigma2                0      0.00%     99.87% # attempts to use FU when none available
system.cpu.iq.fu_full::SimdShaSigma3                0      0.00%     99.87% # attempts to use FU when none available
system.cpu.iq.fu_full::SimdPredAlu                  0      0.00%     99.87% # attempts to use FU when none available
system.cpu.iq.fu_full::MemRead                    740      0.06%     99.92% # attempts to use FU when none available
system.cpu.iq.fu_full::MemWrite                  1042      0.08%    100.00% # attempts to use FU when none available
system.cpu.iq.fu_full::FloatMemRead                 0      0.00%    100.00% # attempts to use FU when none available
system.cpu.iq.fu_full::FloatMemWrite                0      0.00%    100.00% # attempts to use FU when none available
system.cpu.iq.fu_full::IprAccess                    0      0.00%    100.00% # attempts to use FU when none available
system.cpu.iq.fu_full::InstPrefetch                 0      0.00%    100.00% # attempts to use FU when none available
system.cpu.iq.int_alu_accesses              118012919                       # Number of integer alu accesses
system.cpu.iq.int_inst_queue_reads          329094415                       # Number of integer instruction queue reads
system.cpu.iq.int_inst_queue_wakeup_accesses    116668456                       # Number of integer instruction queue wakeup accesses
system.cpu.iq.int_inst_queue_writes         116674729                       # Number of integer instruction queue writes
system.cpu.iq.iqInstsAdded                  116670563                       # Number of instructions added to the IQ (excludes non-spec)
system.cpu.iq.iqInstsIssued                 116669435                       # Number of instructions issued
system.cpu.iq.iqNonSpecInstsAdded                 109                       # Number of non-speculative instructions added to the IQ
system.cpu.iq.iqSquashedInstsExamined            4035                       # Number of squashed instructions iterated over during squash; mainly for profiling
system.cpu.iq.iqSquashedInstsIssued               158                       # Number of squashed instructions issued
system.cpu.iq.iqSquashedNonSpecRemoved             25                       # Number of squashed non-spec instructions that were removed
system.cpu.iq.iqSquashedOperandsExamined         8255                       # Number of squashed operands that are examined and possibly removed from graph
system.cpu.iq.issued_per_cycle::samples      94411903                       # Number of insts issued each cycle
system.cpu.iq.issued_per_cycle::mean         1.235749                       # Number of insts issued each cycle
system.cpu.iq.issued_per_cycle::stdev        1.069337                       # Number of insts issued each cycle
system.cpu.iq.issued_per_cycle::underflows            0      0.00%      0.00% # Number of insts issued each cycle
system.cpu.iq.issued_per_cycle::0            28381897     30.06%     30.06% # Number of insts issued each cycle
system.cpu.iq.issued_per_cycle::1            32411658     34.33%     64.39% # Number of insts issued each cycle
system.cpu.iq.issued_per_cycle::2            16668260     17.65%     82.05% # Number of insts issued each cycle
system.cpu.iq.issued_per_cycle::3            16879095     17.88%     99.92% # Number of insts issued each cycle
system.cpu.iq.issued_per_cycle::4               70993      0.08%    100.00% # Number of insts issued each cycle
system.cpu.iq.issued_per_cycle::5                   0      0.00%    100.00% # Number of insts issued each cycle
system.cpu.iq.issued_per_cycle::6                   0      0.00%    100.00% # Number of insts issued each cycle
system.cpu.iq.issued_per_cycle::7                   0      0.00%    100.00% # Number of insts issued each cycle
system.cpu.iq.issued_per_cycle::8                   0      0.00%    100.00% # Number of insts issued each cycle
system.cpu.iq.issued_per_cycle::overflows            0      0.00%    100.00% # Number of insts issued each cycle
system.cpu.iq.issued_per_cycle::min_value            0                       # Number of insts issued each cycle
system.cpu.iq.issued_per_cycle::max_value            4                       # Number of insts issued each cycle
system.cpu.iq.issued_per_cycle::total        94411903                       # Number of insts issued each cycle
system.cpu.iq.rate                           1.235356                       # Inst issue rate
system.cpu.iq.vec_alu_accesses                      0                       # Number of vector alu accesses
system.cpu.iq.vec_inst_queue_reads                  0                       # Number of vector instruction queue reads
system.cpu.iq.vec_inst_queue_wakeup_accesses            0                       # Number of vector instruction queue wakeup accesses
system.cpu.iq.vec_inst_queue_writes                 0                       # Number of vector instruction queue writes
system.cpu.itb.accesses                             0                       # DTB accesses
system.cpu.itb.align_faults                         0                       # Number of TLB faults due to alignment restrictions
system.cpu.itb.domain_faults                        0                       # Number of TLB faults due to domain restrictions
system.cpu.itb.flush_entries                        0                       # Number of entries that have been flushed from TLB
system.cpu.itb.flush_tlb                            0                       # Number of times complete TLB was flushed
system.cpu.itb.flush_tlb_asid                       0                       # Number of times TLB was flushed by ASID
system.cpu.itb.flush_tlb_mva                        0                       # Number of times TLB was flushed by MVA
system.cpu.itb.flush_tlb_mva_asid                   0                       # Number of times TLB was flushed by MVA & ASID
system.cpu.itb.hits                                 0                       # DTB hits
system.cpu.itb.inst_accesses                        0                       # ITB inst accesses
system.cpu.itb.inst_hits                            0                       # ITB inst hits
system.cpu.itb.inst_misses                          0                       # ITB inst misses
system.cpu.itb.misses                               0                       # DTB misses
system.cpu.itb.perms_faults                         0                       # Number of TLB faults due to permissions restrictions
system.cpu.itb.prefetch_faults                      0                       # Number of TLB faults due to prefetch
system.cpu.itb.read_accesses                        0                       # DTB read accesses
system.cpu.itb.read_hits                            0                       # DTB read hits
system.cpu.itb.read_misses                          0                       # DTB read misses
system.cpu.itb.stage2_mmu.stage2_tlb.accesses            0                       # DTB accesses
system.cpu.itb.stage2_mmu.stage2_tlb.align_faults            0                       # Number of TLB faults due to alignment restrictions
system.cpu.itb.stage2_mmu.stage2_tlb.domain_faults            0                       # Number of TLB faults due to domain restrictions
system.cpu.itb.stage2_mmu.stage2_tlb.flush_entries            0                       # Number of entries that have been flushed from TLB
system.cpu.itb.stage2_mmu.stage2_tlb.flush_tlb            0                       # Number of times complete TLB was flushed
system.cpu.itb.stage2_mmu.stage2_tlb.flush_tlb_asid            0                       # Number of times TLB was flushed by ASID
system.cpu.itb.stage2_mmu.stage2_tlb.flush_tlb_mva            0                       # Number of times TLB was flushed by MVA
system.cpu.itb.stage2_mmu.stage2_tlb.flush_tlb_mva_asid            0                       # Number of times TLB was flushed by MVA & ASID
system.cpu.itb.stage2_mmu.stage2_tlb.hits            0                       # DTB hits
system.cpu.itb.stage2_mmu.stage2_tlb.inst_accesses            0                       # ITB inst accesses
system.cpu.itb.stage2_mmu.stage2_tlb.inst_hits            0                       # ITB inst hits
system.cpu.itb.stage2_mmu.stage2_tlb.inst_misses            0                       # ITB inst misses
system.cpu.itb.stage2_mmu.stage2_tlb.misses            0                       # DTB misses
system.cpu.itb.stage2_mmu.stage2_tlb.perms_faults            0                       # Number of TLB faults due to permissions restrictions
system.cpu.itb.stage2_mmu.stage2_tlb.prefetch_faults            0                       # Number of TLB faults due to prefetch
system.cpu.itb.stage2_mmu.stage2_tlb.read_accesses            0                       # DTB read accesses
system.cpu.itb.stage2_mmu.stage2_tlb.read_hits            0                       # DTB read hits
system.cpu.itb.stage2_mmu.stage2_tlb.read_misses            0                       # DTB read misses
system.cpu.itb.stage2_mmu.stage2_tlb.walker.walkRequestOrigin_Requested::Data            0                       # Table walker requests started/completed, data/inst
system.cpu.itb.stage2_mmu.stage2_tlb.walker.walkRequestOrigin_Requested::Inst            0                       # Table walker requests started/completed, data/inst
system.cpu.itb.stage2_mmu.stage2_tlb.walker.walkRequestOrigin_Requested::total            0                       # Table walker requests started/completed, data/inst
system.cpu.itb.stage2_mmu.stage2_tlb.walker.walkRequestOrigin_Completed::Data            0                       # Table walker requests started/completed, data/inst
system.cpu.itb.stage2_mmu.stage2_tlb.walker.walkRequestOrigin_Completed::Inst            0                       # Table walker requests started/completed, data/inst
system.cpu.itb.stage2_mmu.stage2_tlb.walker.walkRequestOrigin_Completed::total            0                       # Table walker requests started/completed, data/inst
system.cpu.itb.stage2_mmu.stage2_tlb.walker.walkRequestOrigin::total            0                       # Table walker requests started/completed, data/inst
system.cpu.itb.stage2_mmu.stage2_tlb.walker.walks            0                       # Table walker walks requested
system.cpu.itb.stage2_mmu.stage2_tlb.write_accesses            0                       # DTB write accesses
system.cpu.itb.stage2_mmu.stage2_tlb.write_hits            0                       # DTB write hits
system.cpu.itb.stage2_mmu.stage2_tlb.write_misses            0                       # DTB write misses
system.cpu.itb.walker.walkRequestOrigin_Requested::Data            0                       # Table walker requests started/completed, data/inst
system.cpu.itb.walker.walkRequestOrigin_Requested::Inst            0                       # Table walker requests started/completed, data/inst
system.cpu.itb.walker.walkRequestOrigin_Requested::total            0                       # Table walker requests started/completed, data/inst
system.cpu.itb.walker.walkRequestOrigin_Completed::Data            0                       # Table walker requests started/completed, data/inst
system.cpu.itb.walker.walkRequestOrigin_Completed::Inst            0                       # Table walker requests started/completed, data/inst
system.cpu.itb.walker.walkRequestOrigin_Completed::total            0                       # Table walker requests started/completed, data/inst
system.cpu.itb.walker.walkRequestOrigin::total            0                       # Table walker requests started/completed, data/inst
system.cpu.itb.walker.walks                         0                       # Table walker walks requested
system.cpu.itb.write_accesses                       0                       # DTB write accesses
system.cpu.itb.write_hits                           0                       # DTB write hits
system.cpu.itb.write_misses                         0                       # DTB write misses
system.cpu.memDep0.conflictingLoads                75                       # Number of conflicting loads.
system.cpu.memDep0.conflictingStores               40                       # Number of conflicting stores.
system.cpu.memDep0.insertedLoads             16667693                       # Number of loads inserted to the mem dependence unit.
system.cpu.memDep0.insertedStores            16667485                       # Number of stores inserted to the mem dependence unit.
system.cpu.misc_regfile_reads                33336331                       # number of misc regfile reads
system.cpu.misc_regfile_writes                    197                       # number of misc regfile writes
system.cpu.numCycles                         94441942                       # number of cpu cycles simulated
system.cpu.numWorkItemsCompleted                    0                       # number of work items this cpu completed
system.cpu.numWorkItemsStarted                      0                       # number of work items this cpu started
system.cpu.rename.BlockCycles                    1074                       # Number of cycles rename is blocking
system.cpu.rename.CommittedMaps             166663156                       # Number of HB maps that are committed
system.cpu.rename.FullRegisterEvents                1                       # Number of times there has been no free registers
system.cpu.rename.IQFullEvents                      3                       # Number of times rename has blocked due to IQ full
system.cpu.rename.IdleCycles                 32350021                       # Number of cycles rename is idle
system.cpu.rename.ROBFullEvents                    16                       # Number of times rename has blocked due to ROB full
system.cpu.rename.RenameLookups             533352479                       # Number of register rename lookups that rename has made
system.cpu.rename.RenamedInsts              116671353                       # Number of instructions processed by rename
system.cpu.rename.RenamedOperands           166668879                       # Number of destination operands rename has renamed
system.cpu.rename.RunCycles                  49505085                       # Number of cycles rename is running
system.cpu.rename.SQFullEvents               12480376                       # Number of times rename has blocked due to SQ full
system.cpu.rename.SquashCycles                    520                       # Number of cycles rename is squashing
system.cpu.rename.SquashedInsts                   567                       # Number of squashed instructions processed by rename
system.cpu.rename.UnblockCycles              12551435                       # Number of cycles rename is unblocking
system.cpu.rename.UndoneMaps                     5704                       # Number of HB maps that are undone due to squashing
system.cpu.rename.int_rename_lookups        150002694                       # Number of integer rename lookups
system.cpu.rename.serializeStallCycles           3768                       # count of cycles rename stalled for serializing inst
system.cpu.rename.serializingInsts                 74                       # count of serializing insts renamed
system.cpu.rename.skidInsts                    426078                       # count of insts added to the skid buffer
system.cpu.rename.tempSerializingInsts             65                       # count of temporary serializing insts renamed
system.cpu.rename.vec_rename_lookups              279                       # Number of vector rename lookups
system.cpu.rob.rob_reads                    211080940                       # The number of ROB reads
system.cpu.rob.rob_writes                   233340782                       # The number of ROB writes
system.cpu.timesIdled                             310                       # Number of times that the entire CPU went into an idle state and unscheduled itself
system.cpu.vec_regfile_reads                      248                       # number of vector regfile reads
system.cpu.vec_regfile_writes                     175                       # number of vector regfile writes
system.cpu.workload.numSyscalls                    11                       # Number of system calls
system.membus.snoop_filter.hit_multi_requests            0                       # Number of requests hitting in the snoop filter with multiple (>1) holders of the requested data.
system.membus.snoop_filter.hit_multi_snoops            0                       # Number of snoops hitting in the snoop filter with multiple (>1) holders of the requested data.
system.membus.snoop_filter.hit_single_requests      1025362                       # Number of requests hitting in the snoop filter with a single holder of the requested data.
system.membus.snoop_filter.hit_single_snoops            0                       # Number of snoops hitting in the snoop filter with a single holder of the requested data.
system.membus.snoop_filter.tot_requests       2067466                       # Total number of requests made to the snoop filter.
system.membus.snoop_filter.tot_snoops               0                       # Total number of snoops made to the snoop filter.
system.tol2bus.snoop_filter.hit_multi_requests           18                       # Number of requests hitting in the snoop filter with multiple (>1) holders of the requested data.
system.tol2bus.snoop_filter.hit_multi_snoops            0                       # Number of snoops hitting in the snoop filter with multiple (>1) holders of the requested data.
system.tol2bus.snoop_filter.hit_single_requests      1041255                       # Number of requests hitting in the snoop filter with a single holder of the requested data.
system.tol2bus.snoop_filter.hit_single_snoops          371                       # Number of snoops hitting in the snoop filter with a single holder of the requested data.
system.tol2bus.snoop_filter.tot_requests      2083379                       # Total number of requests made to the snoop filter.
system.tol2bus.snoop_filter.tot_snoops            371                       # Total number of snoops made to the snoop filter.
system.membus.pwrStateResidencyTicks::UNDEFINED  59026213125                       # Cumulative time (in ticks) in various power states
system.membus.trans_dist::ReadResp                477                       # Transaction distribution
system.membus.trans_dist::WritebackDirty      1025270                       # Transaction distribution
system.membus.trans_dist::CleanEvict               92                       # Transaction distribution
system.membus.trans_dist::ReadExReq           1041627                       # Transaction distribution
system.membus.trans_dist::ReadExResp          1041625                       # Transaction distribution
system.membus.trans_dist::ReadSharedReq           477                       # Transaction distribution
system.membus.pkt_count_system.l2.mem_side::system.mem_ctrls.port      3109568                       # Packet count per connected master and slave (bytes)
system.membus.pkt_count::total                3109568                       # Packet count per connected master and slave (bytes)
system.membus.pkt_size_system.l2.mem_side::system.mem_ctrls.port    132311808                       # Cumulative packet size per connected master and slave (bytes)
system.membus.pkt_size::total               132311808                       # Cumulative packet size per connected master and slave (bytes)
system.membus.snoops                                0                       # Total snoops (count)
system.membus.snoopTraffic                          0                       # Total snoop traffic (bytes)
system.membus.snoop_fanout::samples           1042104                       # Request fanout histogram
system.membus.snoop_fanout::mean                    0                       # Request fanout histogram
system.membus.snoop_fanout::stdev                   0                       # Request fanout histogram
system.membus.snoop_fanout::underflows              0      0.00%      0.00% # Request fanout histogram
system.membus.snoop_fanout::0                 1042104    100.00%    100.00% # Request fanout histogram
system.membus.snoop_fanout::1                       0      0.00%    100.00% # Request fanout histogram
system.membus.snoop_fanout::overflows               0      0.00%    100.00% # Request fanout histogram
system.membus.snoop_fanout::min_value               0                       # Request fanout histogram
system.membus.snoop_fanout::max_value               0                       # Request fanout histogram
system.membus.snoop_fanout::total             1042104                       # Request fanout histogram
system.membus.respLayer1.occupancy         5437308125                       # Layer occupancy (ticks)
system.membus.respLayer1.utilization              9.2                       # Layer utilization (%)
system.membus.reqLayer0.occupancy          6750252750                       # Layer occupancy (ticks)
system.membus.reqLayer0.utilization              11.4                       # Layer utilization (%)
system.tol2bus.pwrStateResidencyTicks::UNDEFINED  59026213125                       # Cumulative time (in ticks) in various power states
system.tol2bus.trans_dist::ReadResp               497                       # Transaction distribution
system.tol2bus.trans_dist::WritebackDirty      2066413                       # Transaction distribution
system.tol2bus.trans_dist::WritebackClean           29                       # Transaction distribution
system.tol2bus.trans_dist::CleanEvict             546                       # Transaction distribution
system.tol2bus.trans_dist::ReadExReq          1041627                       # Transaction distribution
system.tol2bus.trans_dist::ReadExResp         1041625                       # Transaction distribution
system.tol2bus.trans_dist::ReadCleanReq           384                       # Transaction distribution
system.tol2bus.trans_dist::ReadSharedReq          113                       # Transaction distribution
system.tol2bus.pkt_count_system.cpu.icache.mem_side::system.l2.cpu_side          797                       # Packet count per connected master and slave (bytes)
system.tol2bus.pkt_count_system.cpu.dcache.mem_side::system.l2.cpu_side      3124704                       # Packet count per connected master and slave (bytes)
system.tol2bus.pkt_count::total               3125501                       # Packet count per connected master and slave (bytes)
system.tol2bus.pkt_size_system.cpu.icache.mem_side::system.l2.cpu_side        26432                       # Cumulative packet size per connected master and slave (bytes)
system.tol2bus.pkt_size_system.cpu.dcache.mem_side::system.l2.cpu_side    133304384                       # Cumulative packet size per connected master and slave (bytes)
system.tol2bus.pkt_size::total              133330816                       # Cumulative packet size per connected master and slave (bytes)
system.tol2bus.snoops                         1025733                       # Total snoops (count)
system.tol2bus.snoopTraffic                  65617280                       # Total snoop traffic (bytes)
system.tol2bus.snoop_fanout::samples          2067857                       # Request fanout histogram
system.tol2bus.snoop_fanout::mean            0.000188                       # Request fanout histogram
system.tol2bus.snoop_fanout::stdev           0.013714                       # Request fanout histogram
system.tol2bus.snoop_fanout::underflows             0      0.00%      0.00% # Request fanout histogram
system.tol2bus.snoop_fanout::0                2067468     99.98%     99.98% # Request fanout histogram
system.tol2bus.snoop_fanout::1                    389      0.02%    100.00% # Request fanout histogram
system.tol2bus.snoop_fanout::2                      0      0.00%    100.00% # Request fanout histogram
system.tol2bus.snoop_fanout::overflows              0      0.00%    100.00% # Request fanout histogram
system.tol2bus.snoop_fanout::min_value              0                       # Request fanout histogram
system.tol2bus.snoop_fanout::max_value              1                       # Request fanout histogram
system.tol2bus.snoop_fanout::total            2067857                       # Request fanout histogram
system.tol2bus.reqLayer0.occupancy         2603576875                       # Layer occupancy (ticks)
system.tol2bus.reqLayer0.utilization              4.4                       # Layer utilization (%)
system.tol2bus.respLayer1.occupancy        1953259998                       # Layer occupancy (ticks)
system.tol2bus.respLayer1.utilization             3.3                       # Layer utilization (%)
system.tol2bus.respLayer0.occupancy            721248                       # Layer occupancy (ticks)
system.tol2bus.respLayer0.utilization             0.0                       # Layer utilization (%)
system.voltage_domain.voltage                       1                       # Voltage in Volts
system.clk_domain.clock                          1000                       # Clock period in ticks
system.l2.pwrStateResidencyTicks::UNDEFINED  59026213125                       # Cumulative time (in ticks) in various power states
system.l2.demand_hits::.cpu.inst                    6                       # number of demand (read+write) hits
system.l2.demand_hits::.cpu.data                   10                       # number of demand (read+write) hits
system.l2.demand_hits::total                       16                       # number of demand (read+write) hits
system.l2.overall_hits::.cpu.inst                   6                       # number of overall hits
system.l2.overall_hits::.cpu.data                  10                       # number of overall hits
system.l2.overall_hits::total                      16                       # number of overall hits
system.l2.demand_misses::.cpu.inst                378                       # number of demand (read+write) misses
system.l2.demand_misses::.cpu.data            1041730                       # number of demand (read+write) misses
system.l2.demand_misses::total                1042108                       # number of demand (read+write) misses
system.l2.overall_misses::.cpu.inst               378                       # number of overall misses
system.l2.overall_misses::.cpu.data           1041730                       # number of overall misses
system.l2.overall_misses::total               1042108                       # number of overall misses
system.l2.demand_miss_latency::.cpu.inst     31763750                       # number of demand (read+write) miss cycles
system.l2.demand_miss_latency::.cpu.data  96465028750                       # number of demand (read+write) miss cycles
system.l2.demand_miss_latency::total      96496792500                       # number of demand (read+write) miss cycles
system.l2.overall_miss_latency::.cpu.inst     31763750                       # number of overall miss cycles
system.l2.overall_miss_latency::.cpu.data  96465028750                       # number of overall miss cycles
system.l2.overall_miss_latency::total     96496792500                       # number of overall miss cycles
system.l2.demand_accesses::.cpu.inst              384                       # number of demand (read+write) accesses
system.l2.demand_accesses::.cpu.data          1041740                       # number of demand (read+write) accesses
system.l2.demand_accesses::total              1042124                       # number of demand (read+write) accesses
system.l2.overall_accesses::.cpu.inst             384                       # number of overall (read+write) accesses
system.l2.overall_accesses::.cpu.data         1041740                       # number of overall (read+write) accesses
system.l2.overall_accesses::total             1042124                       # number of overall (read+write) accesses
system.l2.demand_miss_rate::.cpu.inst        0.984375                       # miss rate for demand accesses
system.l2.demand_miss_rate::.cpu.data        0.999990                       # miss rate for demand accesses
system.l2.demand_miss_rate::total            0.999985                       # miss rate for demand accesses
system.l2.overall_miss_rate::.cpu.inst       0.984375                       # miss rate for overall accesses
system.l2.overall_miss_rate::.cpu.data       0.999990                       # miss rate for overall accesses
system.l2.overall_miss_rate::total           0.999985                       # miss rate for overall accesses
system.l2.demand_avg_miss_latency::.cpu.inst 84031.084656                       # average overall miss latency
system.l2.demand_avg_miss_latency::.cpu.data 92600.797472                       # average overall miss latency
system.l2.demand_avg_miss_latency::total 92597.689011                       # average overall miss latency
system.l2.overall_avg_miss_latency::.cpu.inst 84031.084656                       # average overall miss latency
system.l2.overall_avg_miss_latency::.cpu.data 92600.797472                       # average overall miss latency
system.l2.overall_avg_miss_latency::total 92597.689011                       # average overall miss latency
system.l2.blocked_cycles::no_mshrs                  0                       # number of cycles access was blocked
system.l2.blocked_cycles::no_targets                0                       # number of cycles access was blocked
system.l2.blocked::no_mshrs                         0                       # number of cycles access was blocked
system.l2.blocked::no_targets                       0                       # number of cycles access was blocked
system.l2.avg_blocked_cycles::no_mshrs            nan                       # average number of cycles each access was blocked
system.l2.avg_blocked_cycles::no_targets          nan                       # average number of cycles each access was blocked
system.l2.writebacks::.writebacks             1025270                       # number of writebacks
system.l2.writebacks::total                   1025270                       # number of writebacks
system.l2.demand_mshr_hits::.cpu.inst               2                       # number of demand (read+write) MSHR hits
system.l2.demand_mshr_hits::.cpu.data               2                       # number of demand (read+write) MSHR hits
system.l2.demand_mshr_hits::total                   4                       # number of demand (read+write) MSHR hits
system.l2.overall_mshr_hits::.cpu.inst              2                       # number of overall MSHR hits
system.l2.overall_mshr_hits::.cpu.data              2                       # number of overall MSHR hits
system.l2.overall_mshr_hits::total                  4                       # number of overall MSHR hits
system.l2.demand_mshr_misses::.cpu.inst           376                       # number of demand (read+write) MSHR misses
system.l2.demand_mshr_misses::.cpu.data       1041728                       # number of demand (read+write) MSHR misses
system.l2.demand_mshr_misses::total           1042104                       # number of demand (read+write) MSHR misses
system.l2.overall_mshr_misses::.cpu.inst          376                       # number of overall MSHR misses
system.l2.overall_mshr_misses::.cpu.data      1041728                       # number of overall MSHR misses
system.l2.overall_mshr_misses::total          1042104                       # number of overall MSHR misses
system.l2.demand_mshr_miss_latency::.cpu.inst     26832250                       # number of demand (read+write) MSHR miss cycles
system.l2.demand_mshr_miss_latency::.cpu.data  83151075375                       # number of demand (read+write) MSHR miss cycles
system.l2.demand_mshr_miss_latency::total  83177907625                       # number of demand (read+write) MSHR miss cycles
system.l2.overall_mshr_miss_latency::.cpu.inst     26832250                       # number of overall MSHR miss cycles
system.l2.overall_mshr_miss_latency::.cpu.data  83151075375                       # number of overall MSHR miss cycles
system.l2.overall_mshr_miss_latency::total  83177907625                       # number of overall MSHR miss cycles
system.l2.demand_mshr_miss_rate::.cpu.inst     0.979167                       # mshr miss rate for demand accesses
system.l2.demand_mshr_miss_rate::.cpu.data     0.999988                       # mshr miss rate for demand accesses
system.l2.demand_mshr_miss_rate::total       0.999981                       # mshr miss rate for demand accesses
system.l2.overall_mshr_miss_rate::.cpu.inst     0.979167                       # mshr miss rate for overall accesses
system.l2.overall_mshr_miss_rate::.cpu.data     0.999988                       # mshr miss rate for overall accesses
system.l2.overall_mshr_miss_rate::total      0.999981                       # mshr miss rate for overall accesses
system.l2.demand_avg_mshr_miss_latency::.cpu.inst 71362.367021                       # average overall mshr miss latency
system.l2.demand_avg_mshr_miss_latency::.cpu.data 79820.332539                       # average overall mshr miss latency
system.l2.demand_avg_mshr_miss_latency::total 79817.280833                       # average overall mshr miss latency
system.l2.overall_avg_mshr_miss_latency::.cpu.inst 71362.367021                       # average overall mshr miss latency
system.l2.overall_avg_mshr_miss_latency::.cpu.data 79820.332539                       # average overall mshr miss latency
system.l2.overall_avg_mshr_miss_latency::total 79817.280833                       # average overall mshr miss latency
system.l2.replacements                        1025733                       # number of replacements
system.l2.WritebackDirty_hits::.writebacks      1041143                       # number of WritebackDirty hits
system.l2.WritebackDirty_hits::total          1041143                       # number of WritebackDirty hits
system.l2.WritebackDirty_accesses::.writebacks      1041143                       # number of WritebackDirty accesses(hits+misses)
system.l2.WritebackDirty_accesses::total      1041143                       # number of WritebackDirty accesses(hits+misses)
system.l2.WritebackClean_hits::.writebacks           28                       # number of WritebackClean hits
system.l2.WritebackClean_hits::total               28                       # number of WritebackClean hits
system.l2.WritebackClean_accesses::.writebacks           28                       # number of WritebackClean accesses(hits+misses)
system.l2.WritebackClean_accesses::total           28                       # number of WritebackClean accesses(hits+misses)
system.l2.ReadExReq_misses::.cpu.data         1041627                       # number of ReadExReq misses
system.l2.ReadExReq_misses::total             1041627                       # number of ReadExReq misses
system.l2.ReadExReq_miss_latency::.cpu.data  96455983125                       # number of ReadExReq miss cycles
system.l2.ReadExReq_miss_latency::total   96455983125                       # number of ReadExReq miss cycles
system.l2.ReadExReq_accesses::.cpu.data       1041627                       # number of ReadExReq accesses(hits+misses)
system.l2.ReadExReq_accesses::total           1041627                       # number of ReadExReq accesses(hits+misses)
system.l2.ReadExReq_miss_rate::.cpu.data            1                       # miss rate for ReadExReq accesses
system.l2.ReadExReq_miss_rate::total                1                       # miss rate for ReadExReq accesses
system.l2.ReadExReq_avg_miss_latency::.cpu.data 92601.270056                       # average ReadExReq miss latency
system.l2.ReadExReq_avg_miss_latency::total 92601.270056                       # average ReadExReq miss latency
system.l2.ReadExReq_mshr_misses::.cpu.data      1041627                       # number of ReadExReq MSHR misses
system.l2.ReadExReq_mshr_misses::total        1041627                       # number of ReadExReq MSHR misses
system.l2.ReadExReq_mshr_miss_latency::.cpu.data  83143477125                       # number of ReadExReq MSHR miss cycles
system.l2.ReadExReq_mshr_miss_latency::total  83143477125                       # number of ReadExReq MSHR miss cycles
system.l2.ReadExReq_mshr_miss_rate::.cpu.data            1                       # mshr miss rate for ReadExReq accesses
system.l2.ReadExReq_mshr_miss_rate::total            1                       # mshr miss rate for ReadExReq accesses
system.l2.ReadExReq_avg_mshr_miss_latency::.cpu.data 79820.777615                       # average ReadExReq mshr miss latency
system.l2.ReadExReq_avg_mshr_miss_latency::total 79820.777615                       # average ReadExReq mshr miss latency
system.l2.ReadCleanReq_hits::.cpu.inst              6                       # number of ReadCleanReq hits
system.l2.ReadCleanReq_hits::total                  6                       # number of ReadCleanReq hits
system.l2.ReadCleanReq_misses::.cpu.inst          378                       # number of ReadCleanReq misses
system.l2.ReadCleanReq_misses::total              378                       # number of ReadCleanReq misses
system.l2.ReadCleanReq_miss_latency::.cpu.inst     31763750                       # number of ReadCleanReq miss cycles
system.l2.ReadCleanReq_miss_latency::total     31763750                       # number of ReadCleanReq miss cycles
system.l2.ReadCleanReq_accesses::.cpu.inst          384                       # number of ReadCleanReq accesses(hits+misses)
system.l2.ReadCleanReq_accesses::total            384                       # number of ReadCleanReq accesses(hits+misses)
system.l2.ReadCleanReq_miss_rate::.cpu.inst     0.984375                       # miss rate for ReadCleanReq accesses
system.l2.ReadCleanReq_miss_rate::total      0.984375                       # miss rate for ReadCleanReq accesses
system.l2.ReadCleanReq_avg_miss_latency::.cpu.inst 84031.084656                       # average ReadCleanReq miss latency
system.l2.ReadCleanReq_avg_miss_latency::total 84031.084656                       # average ReadCleanReq miss latency
system.l2.ReadCleanReq_mshr_hits::.cpu.inst            2                       # number of ReadCleanReq MSHR hits
system.l2.ReadCleanReq_mshr_hits::total             2                       # number of ReadCleanReq MSHR hits
system.l2.ReadCleanReq_mshr_misses::.cpu.inst          376                       # number of ReadCleanReq MSHR misses
system.l2.ReadCleanReq_mshr_misses::total          376                       # number of ReadCleanReq MSHR misses
system.l2.ReadCleanReq_mshr_miss_latency::.cpu.inst     26832250                       # number of ReadCleanReq MSHR miss cycles
system.l2.ReadCleanReq_mshr_miss_latency::total     26832250                       # number of ReadCleanReq MSHR miss cycles
system.l2.ReadCleanReq_mshr_miss_rate::.cpu.inst     0.979167                       # mshr miss rate for ReadCleanReq accesses
[...]
system.cpu.icache.tags.occ_percent::total     0.652955                       # Average percentage of cache occupancy
system.cpu.icache.tags.occ_task_id_blocks::1024          355                       # Occupied blocks per task id
system.cpu.icache.tags.age_task_id_blocks_1024::4          355                       # Occupied blocks per task id
system.cpu.icache.tags.occ_task_id_percent::1024     0.693359                       # Percentage of cache occupancy per task id
system.cpu.icache.tags.tag_accesses         133340088                       # Number of tag accesses
system.cpu.icache.tags.data_accesses        133340088                       # Number of data accesses
system.cpu.dtb.walker.pwrStateResidencyTicks::UNDEFINED  59026213125                       # Cumulative time (in ticks) in various power states
system.cpu.dtb.stage2_mmu.stage2_tlb.walker.pwrStateResidencyTicks::UNDEFINED  59026213125                       # Cumulative time (in ticks) in various power states
system.cpu.itb.walker.pwrStateResidencyTicks::UNDEFINED  59026213125                       # Cumulative time (in ticks) in various power states
system.cpu.itb.stage2_mmu.stage2_tlb.walker.pwrStateResidencyTicks::UNDEFINED  59026213125                       # Cumulative time (in ticks) in various power states
system.cpu.dcache.pwrStateResidencyTicks::UNDEFINED  59026213125                       # Cumulative time (in ticks) in various power states
system.cpu.dcache.demand_hits::.cpu.data     17569686                       # number of demand (read+write) hits
system.cpu.dcache.demand_hits::total         17569686                       # number of demand (read+write) hits
system.cpu.dcache.overall_hits::.cpu.data     17569698                       # number of overall hits
system.cpu.dcache.overall_hits::total        17569698                       # number of overall hits
system.cpu.dcache.demand_misses::.cpu.data     15764400                       # number of demand (read+write) misses
system.cpu.dcache.demand_misses::total       15764400                       # number of demand (read+write) misses
system.cpu.dcache.overall_misses::.cpu.data     15764412                       # number of overall misses
system.cpu.dcache.overall_misses::total      15764412                       # number of overall misses
system.cpu.dcache.demand_miss_latency::.cpu.data 1123888527500                       # number of demand (read+write) miss cycles
system.cpu.dcache.demand_miss_latency::total 1123888527500                       # number of demand (read+write) miss cycles
system.cpu.dcache.overall_miss_latency::.cpu.data 1123888527500                       # number of overall miss cycles
system.cpu.dcache.overall_miss_latency::total 1123888527500                       # number of overall miss cycles
system.cpu.dcache.demand_accesses::.cpu.data     33334086                       # number of demand (read+write) accesses
system.cpu.dcache.demand_accesses::total     33334086                       # number of demand (read+write) accesses
system.cpu.dcache.overall_accesses::.cpu.data     33334110                       # number of overall (read+write) accesses
system.cpu.dcache.overall_accesses::total     33334110                       # number of overall (read+write) accesses
system.cpu.dcache.demand_miss_rate::.cpu.data     0.472921                       # miss rate for demand accesses
system.cpu.dcache.demand_miss_rate::total     0.472921                       # miss rate for demand accesses
system.cpu.dcache.overall_miss_rate::.cpu.data     0.472921                       # miss rate for overall accesses
system.cpu.dcache.overall_miss_rate::total     0.472921                       # miss rate for overall accesses
system.cpu.dcache.demand_avg_miss_latency::.cpu.data 71292.819739                       # average overall miss latency
system.cpu.dcache.demand_avg_miss_latency::total 71292.819739                       # average overall miss latency
system.cpu.dcache.overall_avg_miss_latency::.cpu.data 71292.765471                       # average overall miss latency
system.cpu.dcache.overall_avg_miss_latency::total 71292.765471                       # average overall miss latency
system.cpu.dcache.blocked_cycles::no_mshrs          149                       # number of cycles access was blocked
system.cpu.dcache.blocked_cycles::no_targets            0                       # number of cycles access was blocked
system.cpu.dcache.blocked::no_mshrs                 3                       # number of cycles access was blocked
system.cpu.dcache.blocked::no_targets               0                       # number of cycles access was blocked
system.cpu.dcache.avg_blocked_cycles::no_mshrs    49.666667                       # average number of cycles each access was blocked
system.cpu.dcache.avg_blocked_cycles::no_targets          nan                       # average number of cycles each access was blocked
system.cpu.dcache.writebacks::.writebacks      1041143                       # number of writebacks
system.cpu.dcache.writebacks::total           1041143                       # number of writebacks
system.cpu.dcache.demand_mshr_hits::.cpu.data     14722672                       # number of demand (read+write) MSHR hits
system.cpu.dcache.demand_mshr_hits::total     14722672                       # number of demand (read+write) MSHR hits
system.cpu.dcache.overall_mshr_hits::.cpu.data     14722672                       # number of overall MSHR hits
system.cpu.dcache.overall_mshr_hits::total     14722672                       # number of overall MSHR hits
system.cpu.dcache.demand_mshr_misses::.cpu.data      1041728                       # number of demand (read+write) MSHR misses
system.cpu.dcache.demand_mshr_misses::total      1041728                       # number of demand (read+write) MSHR misses
system.cpu.dcache.overall_mshr_misses::.cpu.data      1041736                       # number of overall MSHR misses
system.cpu.dcache.overall_mshr_misses::total      1041736                       # number of overall MSHR misses
system.cpu.dcache.demand_mshr_miss_latency::.cpu.data  98417780000                       # number of demand (read+write) MSHR miss cycles
system.cpu.dcache.demand_mshr_miss_latency::total  98417780000                       # number of demand (read+write) MSHR miss cycles
system.cpu.dcache.overall_mshr_miss_latency::.cpu.data  98418463750                       # number of overall MSHR miss cycles
system.cpu.dcache.overall_mshr_miss_latency::total  98418463750                       # number of overall MSHR miss cycles
system.cpu.dcache.demand_mshr_miss_rate::.cpu.data     0.031251                       # mshr miss rate for demand accesses
system.cpu.dcache.demand_mshr_miss_rate::total     0.031251                       # mshr miss rate for demand accesses
system.cpu.dcache.overall_mshr_miss_rate::.cpu.data     0.031251                       # mshr miss rate for overall accesses
system.cpu.dcache.overall_mshr_miss_rate::total     0.031251                       # mshr miss rate for overall accesses
system.cpu.dcache.demand_avg_mshr_miss_latency::.cpu.data 94475.506082                       # average overall mshr miss latency
system.cpu.dcache.demand_avg_mshr_miss_latency::total 94475.506082                       # average overall mshr miss latency
system.cpu.dcache.overall_avg_mshr_miss_latency::.cpu.data 94475.436915                       # average overall mshr miss latency
system.cpu.dcache.overall_avg_mshr_miss_latency::total 94475.436915                       # average overall mshr miss latency
system.cpu.dcache.replacements                1041226                       # number of replacements
system.cpu.dcache.ReadReq_hits::.cpu.data     16667029                       # number of ReadReq hits
system.cpu.dcache.ReadReq_hits::total        16667029                       # number of ReadReq hits
system.cpu.dcache.ReadReq_misses::.cpu.data          176                       # number of ReadReq misses
system.cpu.dcache.ReadReq_misses::total           176                       # number of ReadReq misses
system.cpu.dcache.ReadReq_miss_latency::.cpu.data     13730000                       # number of ReadReq miss cycles
system.cpu.dcache.ReadReq_miss_latency::total     13730000                       # number of ReadReq miss cycles
system.cpu.dcache.ReadReq_accesses::.cpu.data     16667205                       # number of ReadReq accesses(hits+misses)
system.cpu.dcache.ReadReq_accesses::total     16667205                       # number of ReadReq accesses(hits+misses)
system.cpu.dcache.ReadReq_miss_rate::.cpu.data     0.000011                       # miss rate for ReadReq accesses
system.cpu.dcache.ReadReq_miss_rate::total     0.000011                       # miss rate for ReadReq accesses
system.cpu.dcache.ReadReq_avg_miss_latency::.cpu.data 78011.363636                       # average ReadReq miss latency
system.cpu.dcache.ReadReq_avg_miss_latency::total 78011.363636                       # average ReadReq miss latency
system.cpu.dcache.ReadReq_mshr_hits::.cpu.data           75                       # number of ReadReq MSHR hits
system.cpu.dcache.ReadReq_mshr_hits::total           75                       # number of ReadReq MSHR hits
system.cpu.dcache.ReadReq_mshr_misses::.cpu.data          101                       # number of ReadReq MSHR misses
system.cpu.dcache.ReadReq_mshr_misses::total          101                       # number of ReadReq MSHR misses
system.cpu.dcache.ReadReq_mshr_miss_latency::.cpu.data      8381875                       # number of ReadReq MSHR miss cycles
system.cpu.dcache.ReadReq_mshr_miss_latency::total      8381875                       # number of ReadReq MSHR miss cycles
system.cpu.dcache.ReadReq_mshr_miss_rate::.cpu.data     0.000006                       # mshr miss rate for ReadReq accesses
system.cpu.dcache.ReadReq_mshr_miss_rate::total     0.000006                       # mshr miss rate for ReadReq accesses
system.cpu.dcache.ReadReq_avg_mshr_miss_latency::.cpu.data 82988.861386                       # average ReadReq mshr miss latency
system.cpu.dcache.ReadReq_avg_mshr_miss_latency::total 82988.861386                       # average ReadReq mshr miss latency
system.cpu.dcache.WriteReq_hits::.cpu.data       902657                       # number of WriteReq hits
system.cpu.dcache.WriteReq_hits::total         902657                       # number of WriteReq hits
system.cpu.dcache.WriteReq_misses::.cpu.data     15764224                       # number of WriteReq misses
system.cpu.dcache.WriteReq_misses::total     15764224                       # number of WriteReq misses
system.cpu.dcache.WriteReq_miss_latency::.cpu.data 1123874797500                       # number of WriteReq miss cycles
system.cpu.dcache.WriteReq_miss_latency::total 1123874797500                       # number of WriteReq miss cycles
system.cpu.dcache.WriteReq_accesses::.cpu.data     16666881                       # number of WriteReq accesses(hits+misses)
system.cpu.dcache.WriteReq_accesses::total     16666881                       # number of WriteReq accesses(hits+misses)
system.cpu.dcache.WriteReq_miss_rate::.cpu.data     0.945841                       # miss rate for WriteReq accesses
system.cpu.dcache.WriteReq_miss_rate::total     0.945841                       # miss rate for WriteReq accesses
system.cpu.dcache.WriteReq_avg_miss_latency::.cpu.data 71292.744730                       # average WriteReq miss latency
system.cpu.dcache.WriteReq_avg_miss_latency::total 71292.744730                       # average WriteReq miss latency
system.cpu.dcache.WriteReq_mshr_hits::.cpu.data     14722597                       # number of WriteReq MSHR hits
system.cpu.dcache.WriteReq_mshr_hits::total     14722597                       # number of WriteReq MSHR hits
system.cpu.dcache.WriteReq_mshr_misses::.cpu.data      1041627                       # number of WriteReq MSHR misses
system.cpu.dcache.WriteReq_mshr_misses::total      1041627                       # number of WriteReq MSHR misses
system.cpu.dcache.WriteReq_mshr_miss_latency::.cpu.data  98409398125                       # number of WriteReq MSHR miss cycles
system.cpu.dcache.WriteReq_mshr_miss_latency::total  98409398125                       # number of WriteReq MSHR miss cycles
system.cpu.dcache.WriteReq_mshr_miss_rate::.cpu.data     0.062497                       # mshr miss rate for WriteReq accesses
system.cpu.dcache.WriteReq_mshr_miss_rate::total     0.062497                       # mshr miss rate for WriteReq accesses
system.cpu.dcache.WriteReq_avg_mshr_miss_latency::.cpu.data 94476.619870                       # average WriteReq mshr miss latency
system.cpu.dcache.WriteReq_avg_mshr_miss_latency::total 94476.619870                       # average WriteReq mshr miss latency
system.cpu.dcache.SoftPFReq_hits::.cpu.data           12                       # number of SoftPFReq hits
system.cpu.dcache.SoftPFReq_hits::total            12                       # number of SoftPFReq hits
system.cpu.dcache.SoftPFReq_misses::.cpu.data           12                       # number of SoftPFReq misses
system.cpu.dcache.SoftPFReq_misses::total           12                       # number of SoftPFReq misses
system.cpu.dcache.SoftPFReq_accesses::.cpu.data           24                       # number of SoftPFReq accesses(hits+misses)
system.cpu.dcache.SoftPFReq_accesses::total           24                       # number of SoftPFReq accesses(hits+misses)
system.cpu.dcache.SoftPFReq_miss_rate::.cpu.data     0.500000                       # miss rate for SoftPFReq accesses
system.cpu.dcache.SoftPFReq_miss_rate::total     0.500000                       # miss rate for SoftPFReq accesses
system.cpu.dcache.SoftPFReq_mshr_misses::.cpu.data            8                       # number of SoftPFReq MSHR misses
system.cpu.dcache.SoftPFReq_mshr_misses::total            8                       # number of SoftPFReq MSHR misses
system.cpu.dcache.SoftPFReq_mshr_miss_latency::.cpu.data       683750                       # number of SoftPFReq MSHR miss cycles
system.cpu.dcache.SoftPFReq_mshr_miss_latency::total       683750                       # number of SoftPFReq MSHR miss cycles
system.cpu.dcache.SoftPFReq_mshr_miss_rate::.cpu.data     0.333333                       # mshr miss rate for SoftPFReq accesses
system.cpu.dcache.SoftPFReq_mshr_miss_rate::total     0.333333                       # mshr miss rate for SoftPFReq accesses
system.cpu.dcache.SoftPFReq_avg_mshr_miss_latency::.cpu.data 85468.750000                       # average SoftPFReq mshr miss latency
system.cpu.dcache.SoftPFReq_avg_mshr_miss_latency::total 85468.750000                       # average SoftPFReq mshr miss latency
system.cpu.dcache.LoadLockedReq_hits::.cpu.data           37                       # number of LoadLockedReq hits
system.cpu.dcache.LoadLockedReq_hits::total           37                       # number of LoadLockedReq hits
system.cpu.dcache.LoadLockedReq_misses::.cpu.data            5                       # number of LoadLockedReq misses
system.cpu.dcache.LoadLockedReq_misses::total            5                       # number of LoadLockedReq misses
system.cpu.dcache.LoadLockedReq_miss_latency::.cpu.data       423750                       # number of LoadLockedReq miss cycles
system.cpu.dcache.LoadLockedReq_miss_latency::total       423750                       # number of LoadLockedReq miss cycles
system.cpu.dcache.LoadLockedReq_accesses::.cpu.data           42                       # number of LoadLockedReq accesses(hits+misses)
system.cpu.dcache.LoadLockedReq_accesses::total           42                       # number of LoadLockedReq accesses(hits+misses)
system.cpu.dcache.LoadLockedReq_miss_rate::.cpu.data     0.119048                       # miss rate for LoadLockedReq accesses
system.cpu.dcache.LoadLockedReq_miss_rate::total     0.119048                       # miss rate for LoadLockedReq accesses
system.cpu.dcache.LoadLockedReq_avg_miss_latency::.cpu.data        84750                       # average LoadLockedReq miss latency
system.cpu.dcache.LoadLockedReq_avg_miss_latency::total        84750                       # average LoadLockedReq miss latency
system.cpu.dcache.LoadLockedReq_mshr_hits::.cpu.data            1                       # number of LoadLockedReq MSHR hits
system.cpu.dcache.LoadLockedReq_mshr_hits::total            1                       # number of LoadLockedReq MSHR hits
system.cpu.dcache.LoadLockedReq_mshr_misses::.cpu.data            4                       # number of LoadLockedReq MSHR misses
system.cpu.dcache.LoadLockedReq_mshr_misses::total            4                       # number of LoadLockedReq MSHR misses
system.cpu.dcache.LoadLockedReq_mshr_miss_latency::.cpu.data       337500                       # number of LoadLockedReq MSHR miss cycles
system.cpu.dcache.LoadLockedReq_mshr_miss_latency::total       337500                       # number of LoadLockedReq MSHR miss cycles
system.cpu.dcache.LoadLockedReq_mshr_miss_rate::.cpu.data     0.095238                       # mshr miss rate for LoadLockedReq accesses
system.cpu.dcache.LoadLockedReq_mshr_miss_rate::total     0.095238                       # mshr miss rate for LoadLockedReq accesses
system.cpu.dcache.LoadLockedReq_avg_mshr_miss_latency::.cpu.data        84375                       # average LoadLockedReq mshr miss latency
system.cpu.dcache.LoadLockedReq_avg_mshr_miss_latency::total        84375                       # average LoadLockedReq mshr miss latency
system.cpu.dcache.StoreCondReq_hits::.cpu.data           36                       # number of StoreCondReq hits
system.cpu.dcache.StoreCondReq_hits::total           36                       # number of StoreCondReq hits
system.cpu.dcache.StoreCondReq_accesses::.cpu.data           36                       # number of StoreCondReq accesses(hits+misses)
system.cpu.dcache.StoreCondReq_accesses::total           36                       # number of StoreCondReq accesses(hits+misses)
system.cpu.dcache.tags.pwrStateResidencyTicks::UNDEFINED  59026213125                       # Cumulative time (in ticks) in various power states
system.cpu.dcache.tags.tagsinuse           511.727549                       # Cycle average of tags in use
system.cpu.dcache.tags.total_refs            18611509                       # Total number of references to valid blocks.
system.cpu.dcache.tags.sampled_refs           1041738                       # Sample count of references to valid blocks.
system.cpu.dcache.tags.avg_refs             17.865825                       # Average number of references to valid blocks.
system.cpu.dcache.tags.warmup_cycle            189375                       # Cycle when the warmup percentage was hit.
system.cpu.dcache.tags.occ_blocks::.cpu.data   511.727549                       # Average occupied blocks per requestor
system.cpu.dcache.tags.occ_percent::.cpu.data     0.999468                       # Average percentage of cache occupancy
system.cpu.dcache.tags.occ_percent::total     0.999468                       # Average percentage of cache occupancy
system.cpu.dcache.tags.occ_task_id_blocks::1024          512                       # Occupied blocks per task id
system.cpu.dcache.tags.age_task_id_blocks_1024::0          176                       # Occupied blocks per task id
system.cpu.dcache.tags.age_task_id_blocks_1024::1          335                       # Occupied blocks per task id
system.cpu.dcache.tags.age_task_id_blocks_1024::4            1                       # Occupied blocks per task id
system.cpu.dcache.tags.occ_task_id_percent::1024            1                       # Percentage of cache occupancy per task id
system.cpu.dcache.tags.tag_accesses         134378490                       # Number of tag accesses
system.cpu.dcache.tags.data_accesses        134378490                       # Number of data accesses

---------- End Simulation Statistics   ----------
